
  EPA STORM WATER MANAGEMENT MODEL - VERSION 5.1 (Build 5.1.015)
  --------------------------------------------------------------

  WARNING 04: minimum elevation drop used for Conduit c_903642
  WARNING 04: minimum elevation drop used for Conduit c_903651
  WARNING 04: minimum elevation drop used for Conduit c_903672
  WARNING 04: minimum elevation drop used for Conduit c_905571
  WARNING 04: minimum elevation drop used for Conduit c_905632
  WARNING 04: minimum elevation drop used for Conduit c_905821
  WARNING 04: minimum elevation drop used for Conduit c_905861
  WARNING 04: minimum elevation drop used for Conduit c_905931
  WARNING 04: minimum elevation drop used for Conduit c_906201
  WARNING 04: minimum elevation drop used for Conduit c_906322
  WARNING 04: minimum elevation drop used for Conduit c_906631
  WARNING 04: minimum elevation drop used for Conduit c_906641
  WARNING 04: minimum elevation drop used for Conduit c_906651
  WARNING 04: minimum elevation drop used for Conduit c_906731
  WARNING 04: minimum elevation drop used for Conduit c_906741
  WARNING 04: minimum elevation drop used for Conduit c_907242
  
  *********************
  Rainfall File Summary
  *********************
  Station    First        Last         Recording   Periods    Periods    Periods
  ID         Date         Date         Frequency  w/Precip    Missing    Malfunc.
  -------------------------------------------------------------------------------
  R1         01/08/2014   01/08/2014       5 min       104          0          0
  R1         01/08/2014   01/08/2014       5 min       104          0          0
  R1         01/08/2014   01/08/2014       5 min       104          0          0

  
  *********************************************************
  NOTE: The summary statistics displayed in this report are
  based on results found at every computational time step,  
  not just on results from each reporting time step.
  *********************************************************
  
  ****************
  Analysis Options
  ****************
  Flow Units ............... CMS
  Process Models:
    Rainfall/Runoff ........ YES
    RDII ................... NO
    Snowmelt ............... NO
    Groundwater ............ NO
    Flow Routing ........... YES
    Ponding Allowed ........ NO
    Water Quality .......... NO
  Infiltration Method ...... HORTON
  Flow Routing Method ...... DYNWAVE
  Surcharge Method ......... EXTRAN
  Starting Date ............ 01/08/2014 00:00:00
  Ending Date .............. 01/08/2014 10:00:00
  Antecedent Dry Days ...... 0.0
  Report Time Step ......... 00:05:00
  Wet Time Step ............ 00:01:00
  Dry Time Step ............ 00:10:00
  Routing Time Step ........ 1.00 sec
  Variable Time Step ....... YES
  Maximum Trials ........... 12
  Number of Threads ........ 2
  Head Tolerance ........... 0.000200 m
  
  
  **************************        Volume         Depth
  Runoff Quantity Continuity     hectare-m            mm
  **************************     ---------       -------
  Total Precipitation ......         2.424        87.333
  Evaporation Loss .........         0.010         0.357
  Infiltration Loss ........         0.018         0.655
  Surface Runoff ...........         2.308        83.158
  Final Storage ............         0.100         3.586
  Continuity Error (%) .....        -0.483
  
  
  **************************        Volume        Volume
  Flow Routing Continuity        hectare-m      10^6 ltr
  **************************     ---------     ---------
  Dry Weather Inflow .......         0.000         0.000
  Wet Weather Inflow .......         2.308        23.077
  Groundwater Inflow .......         0.000         0.000
  RDII Inflow ..............         0.000         0.000
  External Inflow ..........         0.000         0.000
  External Outflow .........         2.215        22.150
  Flooding Loss ............         0.094         0.941
  Evaporation Loss .........         0.000         0.000
  Exfiltration Loss ........         0.000         0.000
  Initial Stored Volume ....         0.000         0.000
  Final Stored Volume ......         0.001         0.006
  Continuity Error (%) .....        -0.086
  
  
  *************************
  Highest Continuity Errors
  *************************
  Node j_91293 (2.24%)
  
  
  ***************************
  Time-Step Critical Elements
  ***************************
  Link c_904312 (38.98%)
  
  
  ********************************
  Highest Flow Instability Indexes
  ********************************
  Link c_906622 (4)
  Link c_904501 (4)
  Link c_906192 (4)
  Link c_912791 (4)
  Link c_912721 (3)
  
  
  *************************
  Routing Time Step Summary
  *************************
  Minimum Time Step           :     0.50 sec
  Average Time Step           :     0.82 sec
  Maximum Time Step           :     1.00 sec
  Percent in Steady State     :     0.83
  Average Iterations per Step :     4.41
  Percent Not Converging      :    22.35
  Time Step Frequencies       :
      1.000 -  0.871 sec      :    60.58 %
      0.871 -  0.758 sec      :     0.76 %
      0.758 -  0.660 sec      :     1.08 %
      0.660 -  0.574 sec      :     3.71 %
      0.574 -  0.500 sec      :    33.86 %
  
  
  ***************************
  Subcatchment Runoff Summary
  ***************************
  
  ------------------------------------------------------------------------------------------------------------------------------
                            Total      Total      Total      Total     Imperv       Perv      Total       Total     Peak  Runoff
                           Precip      Runon       Evap      Infil     Runoff     Runoff     Runoff      Runoff   Runoff   Coeff
  Subcatchment                 mm         mm         mm         mm         mm         mm         mm    10^6 ltr      CMS
  ------------------------------------------------------------------------------------------------------------------------------
  sub_9006F                 87.33       0.00       0.36       0.54      54.49      28.42      82.92        0.03     0.01   0.949
  sub_90334                 87.33       0.00       0.36       1.43       9.87      74.98      84.84        0.10     0.03   0.971
  sub_90335                 87.33       0.00       0.36       0.33      65.22      17.23      82.45        0.16     0.04   0.944
  sub_90336                 87.33       0.00       0.36       1.10      26.37      57.76      84.13        0.03     0.01   0.963
  sub_90363                 87.33       0.00       0.36       0.33      65.09      17.37      82.46        0.18     0.05   0.944
  sub_90364                 87.33       0.00       0.36       1.22      20.81      63.56      84.37        0.05     0.01   0.966
  sub_90365                 87.33       0.00       0.36       1.63       0.00      85.27      85.27        0.01     0.00   0.976
  sub_90366                 87.33       0.00       0.36       0.55      54.11      28.82      82.93        0.06     0.02   0.950
  sub_90367                 87.33       0.00       0.36       0.93      35.21      48.54      83.75        0.05     0.01   0.959
  sub_90369                 87.33       0.00       0.36       0.66      48.44      34.74      83.18        0.13     0.04   0.952
  sub_90370                 87.33       0.00       0.36       0.45      59.35      23.36      82.71        0.06     0.02   0.947
  sub_90371                 87.33       0.00       0.36       0.23      70.06      12.18      82.24        0.08     0.02   0.942
  sub_90372                 87.33       0.00       0.36       1.03      30.11      53.85      83.97        0.03     0.01   0.961
  sub_90373                 87.33       0.00       0.36       0.07      78.19       3.71      81.89        0.06     0.02   0.938
  sub_90375                 87.33       0.00       0.36       0.33      65.39      17.05      82.45        0.07     0.02   0.944
  sub_90376                 87.33       0.00       0.36       0.58      52.55      30.45      83.00        0.01     0.00   0.950
  sub_90377                 87.33       0.00       0.36       0.34      64.47      18.01      82.49        0.06     0.02   0.944
  sub_90378                 87.33       0.00       0.36       0.46      58.69      24.05      82.74        0.06     0.02   0.947
  sub_90379                 87.33       0.00       0.36       0.77      43.02      40.39      83.41        0.10     0.02   0.955
  sub_90380                 87.33       0.00       0.36       0.70      46.53      36.73      83.26        0.11     0.03   0.953
  sub_90381                 87.33       0.00       0.36       0.71      46.11      37.17      83.28        0.06     0.02   0.954
  sub_90382                 87.33       0.00       0.36       0.59      52.17      30.84      83.02        0.08     0.02   0.951
  sub_90383                 87.33       0.00       0.36       0.50      56.51      26.32      82.83        0.07     0.02   0.948
  sub_90384                 87.33       0.00       0.36       0.96      33.44      50.39      83.83        0.04     0.01   0.960
  sub_90385                 87.33       0.00       0.36       0.43      60.36      22.30      82.66        0.05     0.01   0.947
  sub_90386                 87.33       0.00       0.36       0.78      42.65      40.78      83.43        0.10     0.03   0.955
  sub_90387                 87.33       0.00       0.36       0.61      51.22      31.83      83.06        0.06     0.02   0.951
  sub_90388                 87.33       0.00       0.36       0.60      51.53      31.51      83.04        0.04     0.01   0.951
  sub_90389                 87.33       0.00       0.36       0.67      48.24      34.95      83.19        0.05     0.01   0.953
  sub_90390                 87.33       0.00       0.36       0.84      39.63      43.93      83.56        0.03     0.01   0.957
  sub_90391                 87.33       0.00       0.36       1.63       0.00      85.27      85.27        0.03     0.01   0.976
  sub_90392                 87.33       0.00       0.36       1.04      29.46      54.53      84.00        0.07     0.02   0.962
  sub_90393                 87.33       0.00       0.36       1.03      30.14      53.82      83.97        0.12     0.03   0.961
  sub_90394                 87.33       0.00       0.36       0.98      32.70      51.16      83.86        0.04     0.01   0.960
  sub_90395                 87.33       0.00       0.36       0.38      62.77      19.79      82.56        0.05     0.01   0.945
  sub_90396                 87.33       0.00       0.36       0.00      81.74       0.00      81.74        0.02     0.01   0.936
  sub_90397                 87.33       0.00       0.36       0.88      37.63      46.02      83.64        0.05     0.01   0.958
  sub_90398                 87.33       0.00       0.36       0.92      35.69      48.04      83.73        0.06     0.02   0.959
  sub_90399                 87.33       0.00       0.36       0.51      55.93      26.93      82.85        0.06     0.02   0.949
  sub_90400                 87.33       0.00       0.36       0.61      51.09      31.98      83.06        0.04     0.01   0.951
  sub_90401                 87.33       0.00       0.36       0.36      63.69      18.83      82.52        0.06     0.02   0.945
  sub_90402                 87.33       0.00       0.36       0.38      62.63      19.93      82.57        0.06     0.02   0.945
  sub_90403                 87.33       0.00       0.36       0.62      50.86      32.21      83.07        0.04     0.01   0.951
  sub_90404                 87.33       0.00       0.36       0.65      49.27      33.87      83.14        0.06     0.02   0.952
  sub_90405                 87.33       0.00       0.36       0.71      46.11      37.17      83.28        0.06     0.02   0.954
  sub_90406                 87.33       0.00       0.36       0.86      38.60      45.00      83.60        0.06     0.02   0.957
  sub_90407                 87.33       0.00       0.36       0.84      39.41      44.16      83.57        0.05     0.01   0.957
  sub_90408                 87.33       0.00       0.36       0.54      54.67      28.24      82.91        0.13     0.03   0.949
  sub_90427                 87.33       0.00       0.36       0.63      49.98      33.13      83.11        0.13     0.03   0.952
  sub_90428                 87.33       0.00       0.36       0.77      43.17      40.24      83.41        0.07     0.02   0.955
  sub_90430                 87.33       0.00       0.36       0.37      63.39      19.14      82.53        0.04     0.01   0.945
  sub_90431                 87.33       0.00       0.36       0.59      52.12      30.89      83.02        0.06     0.02   0.951
  sub_90433                 87.33       0.00       0.36       0.81      40.87      42.63      83.50        0.02     0.01   0.956
  sub_90434                 87.33       0.00       0.36       0.29      67.14      15.23      82.37        0.05     0.01   0.943
  sub_90435                 87.33       0.00       0.36       0.52      55.78      27.09      82.86        0.07     0.02   0.949
  sub_90436                 87.33       0.00       0.36       0.26      68.66      13.64      82.30        0.04     0.01   0.942
  sub_90437                 87.33       0.00       0.36       0.41      61.12      21.51      82.63        0.09     0.02   0.946
  sub_90438                 87.33       0.00       0.36       0.58      52.61      30.38      83.00        0.07     0.02   0.950
  sub_90439                 87.33       0.00       0.36       0.59      52.31      30.70      83.01        0.04     0.01   0.951
  sub_90440                 87.33       0.00       0.36       0.66      48.40      34.78      83.18        0.13     0.03   0.952
  sub_90441                 87.33       0.00       0.36       1.09      27.25      56.85      84.09        0.06     0.02   0.963
  sub_90442                 87.33       0.00       0.36       1.28      17.70      66.80      84.51        0.13     0.03   0.968
  sub_90443                 87.33       0.00       0.36       0.95      34.03      49.77      83.80        0.19     0.05   0.960
  sub_90444                 87.33       0.00       0.36       0.46      58.78      23.95      82.73        0.07     0.02   0.947
  sub_90445                 87.33       0.00       0.36       0.80      41.40      42.08      83.48        0.06     0.02   0.956
  sub_90446                 87.33       0.00       0.36       0.49      57.32      25.47      82.79        0.06     0.02   0.948
  sub_90447                 87.33       0.00       0.36       0.76      43.74      39.64      83.38        0.10     0.02   0.955
  sub_90448                 87.33       0.00       0.36       0.70      46.43      36.84      83.26        0.10     0.03   0.953
  sub_90449                 87.33       0.00       0.36       0.66      48.44      34.74      83.18        0.04     0.01   0.952
  sub_90450                 87.33       0.00       0.36       0.56      53.55      29.40      82.96        0.02     0.01   0.950
  sub_90451                 87.33       0.00       0.36       0.71      45.92      37.37      83.29        0.07     0.02   0.954
  sub_90452                 87.33       0.00       0.36       0.92      35.76      47.96      83.73        0.04     0.01   0.959
  sub_90453                 87.33       0.00       0.36       0.47      58.10      24.66      82.76        0.07     0.02   0.948
  sub_90454                 87.33       0.00       0.36       0.63      49.90      33.21      83.11        0.08     0.02   0.952
  sub_90455                 87.33       0.00       0.36       0.35      64.22      18.27      82.50        0.07     0.02   0.945
  sub_90456                 87.33       0.00       0.36       0.95      34.33      49.46      83.79        0.13     0.03   0.959
  sub_90457                 87.33       0.00       0.36       0.93      35.10      48.65      83.75        0.14     0.04   0.959
  sub_90459                 87.33       0.00       0.36       1.13      25.15      59.03      84.18        0.15     0.04   0.964
  sub_90460                 87.33       0.00       0.36       1.51       5.91      79.11      85.01        0.07     0.02   0.973
  sub_90461                 87.33       0.00       0.36       0.54      54.49      28.42      82.92        0.03     0.01   0.949
  sub_90462                 87.33       0.00       0.36       0.77      43.33      40.07      83.40        0.07     0.02   0.955
  sub_90463                 87.33       0.00       0.36       0.39      62.01      20.58      82.59        0.07     0.02   0.946
  sub_90464                 87.33       0.00       0.36       0.66      48.88      34.27      83.16        0.08     0.02   0.952
  sub_90465                 87.33       0.00       0.36       0.35      64.22      18.27      82.50        0.07     0.02   0.945
  sub_90466                 87.33       0.00       0.36       0.61      51.09      31.98      83.06        0.08     0.02   0.951
  sub_90467                 87.33       0.00       0.36       0.30      66.74      15.65      82.39        0.13     0.03   0.943
  sub_90468                 87.33       0.00       0.36       0.58      52.69      30.30      82.99        0.10     0.03   0.950
  sub_90469                 87.33       0.00       0.36       0.35      64.22      18.27      82.50        0.07     0.02   0.945
  sub_90470                 87.33       0.00       0.36       0.60      51.67      31.37      83.04        0.09     0.02   0.951
  sub_90471                 87.33       0.00       0.36       0.50      56.83      25.99      82.82        0.09     0.02   0.948
  sub_90477                 87.33       0.00       0.36       0.34      64.71      17.76      82.48        0.12     0.03   0.944
  sub_90478                 87.33       0.00       0.36       0.39      62.01      20.58      82.59        0.07     0.02   0.946
  sub_90479                 87.33       0.00       0.36       0.93      34.88      48.89      83.76        0.06     0.02   0.959
  sub_90480                 87.33       0.00       0.36       0.46      58.67      24.07      82.74        0.10     0.03   0.947
  sub_90481                 87.33       0.00       0.36       0.58      52.49      30.52      83.00        0.08     0.02   0.950
  sub_90482                 87.33       0.00       0.36       0.61      51.26      31.80      83.06        0.05     0.01   0.951
  sub_90483                 87.33       0.00       0.36       1.22      20.44      63.95      84.39        0.09     0.02   0.966
  sub_90484                 87.33       0.00       0.36       0.51      56.20      26.65      82.84        0.08     0.02   0.949
  sub_90485                 87.33       0.00       0.36       0.92      35.69      48.04      83.73        0.12     0.03   0.959
  sub_90486                 87.33       0.00       0.36       0.68      47.58      35.64      83.22        0.11     0.03   0.953
  sub_90487                 87.33       0.00       0.36       0.58      52.49      30.52      83.00        0.16     0.04   0.950
  sub_90488                 87.33       0.00       0.36       0.71      46.02      37.27      83.28        0.11     0.03   0.954
  sub_90489                 87.33       0.00       0.36       0.36      63.68      18.84      82.52        0.07     0.02   0.945
  sub_90490                 87.33       0.00       0.36       0.32      65.57      16.87      82.44        0.08     0.02   0.944
  sub_90491                 87.33       0.00       0.36       0.38      62.69      19.87      82.56        0.09     0.02   0.945
  sub_90492                 87.33       0.00       0.36       0.51      56.11      26.74      82.85        0.10     0.03   0.949
  sub_90493                 87.33       0.00       0.36       0.35      64.29      18.20      82.49        0.07     0.02   0.945
  sub_90494                 87.33       0.00       0.36       0.33      65.04      17.42      82.46        0.08     0.02   0.944
  sub_90495                 87.33       0.00       0.36       0.52      55.58      27.29      82.87        0.08     0.02   0.949
  sub_90496                 87.33       0.00       0.36       0.35      64.29      18.20      82.49        0.07     0.02   0.945
  sub_90497                 87.33       0.00       0.36       0.31      66.09      16.33      82.42        0.08     0.02   0.944
  sub_90498                 87.33       0.00       0.36       0.59      52.29      30.72      83.01        0.13     0.04   0.951
  sub_90499                 87.33       0.00       0.36       1.02      30.43      53.53      83.96        0.12     0.03   0.961
  sub_90500                 87.33       0.00       0.36       0.75      44.11      39.25      83.36        0.11     0.03   0.955
  sub_90501                 87.33       0.00       0.36       0.33      65.23      17.23      82.45        0.08     0.02   0.944
  sub_90502                 87.33       0.00       0.36       0.65      49.37      33.77      83.14        0.08     0.02   0.952
  sub_90503                 87.33       0.00       0.36       0.36      63.58      18.95      82.52        0.06     0.02   0.945
  sub_90504                 87.33       0.00       0.36       0.34      64.86      17.61      82.47        0.08     0.02   0.944
  sub_90505                 87.33       0.00       0.36       0.39      61.95      20.64      82.59        0.08     0.02   0.946
  sub_90506                 87.33       0.00       0.36       0.43      60.13      22.54      82.67        0.07     0.02   0.947
  sub_90507                 87.33       0.00       0.36       0.45      59.13      23.59      82.72        0.08     0.02   0.947
  sub_90508                 87.33       0.00       0.36       0.44      59.81      22.88      82.69        0.07     0.02   0.947
  sub_90509                 87.33       0.00       0.36       0.90      36.45      47.24      83.70        0.06     0.02   0.958
  sub_90510                 87.33       0.00       0.36       0.41      61.31      21.32      82.62        0.07     0.02   0.946
  sub_90511                 87.33       0.00       0.36       0.70      46.71      36.54      83.25        0.04     0.01   0.953
  sub_90512                 87.33       0.00       0.36       0.46      58.50      24.24      82.74        0.08     0.02   0.947
  sub_90513                 87.33       0.00       0.36       0.32      65.83      16.59      82.43        0.15     0.04   0.944
  sub_90514                 87.33       0.00       0.36       0.42      60.60      22.05      82.65        0.10     0.03   0.946
  sub_90515                 87.33       0.00       0.36       0.74      44.65      38.69      83.34        0.09     0.02   0.954
  sub_90516                 87.33       0.00       0.36       1.03      29.93      54.04      83.98        0.06     0.02   0.962
  sub_90517                 87.33       0.00       0.36       0.75      44.28      39.08      83.36        0.06     0.02   0.954
  sub_90518                 87.33       0.00       0.36       0.22      70.52      11.70      82.22        0.04     0.01   0.942
  sub_90519                 87.33       0.00       0.36       0.83      40.09      43.45      83.54        0.18     0.05   0.957
  sub_90520                 87.33       0.00       0.36       0.81      41.21      42.28      83.49        0.10     0.03   0.956
  sub_90521                 87.33       0.00       0.36       0.48      57.85      24.93      82.77        0.05     0.01   0.948
  sub_90522                 87.33       0.00       0.36       0.38      62.61      19.96      82.57        0.04     0.01   0.945
  sub_90523                 87.33       0.00       0.36       0.47      58.01      24.76      82.76        0.10     0.03   0.948
  sub_90524                 87.33       0.00       0.36       0.80      41.84      41.62      83.46        0.14     0.04   0.956
  sub_90525                 87.33       0.00       0.36       1.00      31.49      52.42      83.91        0.20     0.05   0.961
  sub_90526                 87.33       0.00       0.36       0.80      41.39      42.10      83.48        0.07     0.02   0.956
  sub_90527                 87.33       0.00       0.36       1.04      29.64      54.35      83.99        0.08     0.02   0.962
  sub_90549                 87.33       0.00       0.36       0.75      43.92      39.45      83.37        0.06     0.01   0.955
  sub_90550                 87.33       0.00       0.36       0.00      81.74       0.00      81.74        0.04     0.01   0.936
  sub_90551                 87.33       0.00       0.36       0.88      37.52      46.13      83.65        0.05     0.01   0.958
  sub_90552                 87.33       0.00       0.36       0.36      63.64      18.89      82.52        0.25     0.07   0.945
  sub_90553                 87.33       0.00       0.36       0.85      39.36      44.21      83.57        0.05     0.01   0.957
  sub_90554                 87.33       0.00       0.36       0.80      41.40      42.08      83.48        0.06     0.02   0.956
  sub_90555                 87.33       0.00       0.36       0.98      32.50      51.37      83.87        0.07     0.02   0.960
  sub_90556                 87.33       0.00       0.36       1.08      27.79      56.28      84.07        0.13     0.03   0.963
  sub_90557                 87.33       0.00       0.36       0.55      53.96      28.98      82.94        0.09     0.02   0.950
  sub_90558                 87.33       0.00       0.36       0.56      53.69      29.26      82.95        0.14     0.04   0.950
  sub_90559                 87.33       0.00       0.36       0.88      37.73      45.91      83.64        0.09     0.02   0.958
  sub_90560                 87.33       0.00       0.36       0.72      45.41      37.90      83.31        0.13     0.04   0.954
  sub_90561                 87.33       0.00       0.36       0.64      49.42      33.71      83.14        0.11     0.03   0.952
  sub_90562                 87.33       0.00       0.36       0.60      51.84      31.20      83.03        0.10     0.03   0.951
  sub_90563                 87.33       0.00       0.36       0.56      53.50      29.46      82.96        0.09     0.02   0.950
  sub_90564                 87.33       0.00       0.36       0.49      57.31      25.48      82.80        0.07     0.02   0.948
  sub_90565                 87.33       0.00       0.36       0.69      46.94      36.30      83.24        0.08     0.02   0.953
  sub_90566                 87.33       0.00       0.36       0.71      46.03      37.25      83.28        0.09     0.02   0.954
  sub_90567                 87.33       0.00       0.36       0.85      39.24      44.34      83.58        0.06     0.02   0.957
  sub_90568                 87.33       0.00       0.36       0.00      81.74       0.00      81.74        0.03     0.01   0.936
  sub_90569                 87.33       0.00       0.36       0.78      42.60      40.83      83.43        0.06     0.02   0.955
  sub_90570                 87.33       0.00       0.36       0.93      35.03      48.73      83.76        0.05     0.01   0.959
  sub_90571                 87.33       0.00       0.36       0.50      56.66      26.16      82.82        0.07     0.02   0.948
  sub_90572                 87.33       0.00       0.36       0.50      56.83      25.99      82.82        0.09     0.02   0.948
  sub_90573                 87.33       0.00       0.36       0.33      65.04      17.42      82.46        0.08     0.02   0.944
  sub_90574                 87.33       0.00       0.36       0.38      62.80      19.76      82.56        0.07     0.02   0.945
  sub_90575                 87.33       0.00       0.36       0.62      50.74      32.34      83.08        0.10     0.03   0.951
  sub_90576                 87.33       0.00       0.36       0.67      48.04      35.15      83.20        0.09     0.02   0.953
  sub_90577                 87.33       0.00       0.36       0.65      49.04      34.11      83.15        0.07     0.02   0.952
  sub_90578                 87.33       0.00       0.36       0.57      53.23      29.75      82.97        0.11     0.03   0.950
  sub_90579                 87.33       0.00       0.36       0.48      57.87      24.90      82.77        0.09     0.02   0.948
  sub_90580                 87.33       0.00       0.36       0.99      32.17      51.71      83.88        0.08     0.02   0.960
  sub_90581                 87.33       0.00       0.36       0.80      41.78      41.69      83.47        0.08     0.02   0.956
  sub_90582                 87.33       0.00       0.36       0.63      50.37      32.73      83.09        0.08     0.02   0.951
  sub_90583                 87.33       0.00       0.36       0.78      42.54      40.89      83.43        0.08     0.02   0.955
  sub_90584                 87.33       0.00       0.36       0.44      59.77      22.92      82.69        0.08     0.02   0.947
  sub_90585                 87.33       0.00       0.36       0.44      59.85      22.84      82.69        0.09     0.02   0.947
  sub_90586                 87.33       0.00       0.36       0.48      57.65      25.13      82.78        0.08     0.02   0.948
  sub_90587                 87.33       0.00       0.36       0.53      55.17      27.71      82.89        0.07     0.02   0.949
  sub_90588                 87.33       0.00       0.36       0.36      63.46      19.07      82.53        0.06     0.02   0.945
  sub_90589                 87.33       0.00       0.36       0.60      51.86      31.17      83.03        0.08     0.02   0.951
  sub_90590                 87.33       0.00       0.36       0.57      52.97      30.01      82.98        0.10     0.03   0.950
  sub_90591                 87.33       0.00       0.36       0.39      62.16      20.43      82.59        0.08     0.02   0.946
  sub_90592                 87.33       0.00       0.36       0.38      62.75      19.81      82.56        0.08     0.02   0.945
  sub_90593                 87.33       0.00       0.36       0.51      56.02      26.83      82.85        0.07     0.02   0.949
  sub_90594                 87.33       0.00       0.36       0.63      50.02      33.09      83.11        0.11     0.03   0.952
  sub_90595                 87.33       0.00       0.36       0.64      49.72      33.40      83.12        0.08     0.02   0.952
  sub_90596                 87.33       0.00       0.36       0.36      63.58      18.95      82.52        0.07     0.02   0.945
  sub_90597                 87.33       0.00       0.36       0.85      39.14      44.44      83.58        0.06     0.02   0.957
  sub_90598                 87.33       0.00       0.36       0.84      39.46      44.10      83.57        0.05     0.01   0.957
  sub_90599                 87.33       0.00       0.36       0.62      50.68      32.40      83.08        0.04     0.01   0.951
  sub_90600                 87.33       0.00       0.36       0.56      53.50      29.46      82.96        0.05     0.01   0.950
  sub_90601                 87.33       0.00       0.36       0.94      34.62      49.16      83.77        0.07     0.02   0.959
  sub_90602                 87.33       0.00       0.36       0.70      46.71      36.54      83.25        0.07     0.02   0.953
  sub_90603                 87.33       0.00       0.36       0.89      37.25      46.41      83.66        0.07     0.02   0.958
  sub_90604                 87.33       0.00       0.36       0.59      52.02      31.01      83.02        0.07     0.02   0.951
  sub_90605                 87.33       0.00       0.36       0.58      52.48      30.53      83.00        0.13     0.04   0.950
  sub_90606                 87.33       0.00       0.36       0.66      48.86      34.30      83.16        0.07     0.02   0.952
  sub_90607                 87.33       0.00       0.36       0.68      47.58      35.64      83.22        0.06     0.01   0.953
  sub_90608                 87.33       0.00       0.36       0.81      40.87      42.63      83.50        0.07     0.02   0.956
  sub_90609                 87.33       0.00       0.36       0.96      33.73      50.08      83.81        0.05     0.01   0.960
  sub_90610                 87.33       0.00       0.36       0.93      35.19      48.56      83.75        0.06     0.02   0.959
  sub_90611                 87.33       0.00       0.36       0.83      40.13      43.41      83.54        0.05     0.01   0.957
  sub_90612                 87.33       0.00       0.36       0.94      34.74      49.03      83.77        0.07     0.02   0.959
  sub_90613                 87.33       0.00       0.36       1.00      31.64      52.26      83.90        0.10     0.03   0.961
  sub_90615                 87.33       0.00       0.36       0.85      39.09      44.49      83.58        0.13     0.04   0.957
  sub_90616                 87.33       0.00       0.36       0.44      59.91      22.77      82.68        0.13     0.04   0.947
  sub_90617                 87.33       0.00       0.36       0.56      53.47      29.49      82.96        0.11     0.03   0.950
  sub_90618                 87.33       0.00       0.36       0.36      63.53      19.00      82.53        0.17     0.04   0.945
  sub_90619                 87.33       0.00       0.36       0.06      78.82       3.04      81.87        0.05     0.01   0.937
  sub_90620                 87.33       0.00       0.36       0.38      62.58      19.99      82.57        0.05     0.01   0.945
  sub_90621                 87.33       0.00       0.36       0.81      41.25      42.24      83.49        0.18     0.05   0.956
  sub_90623                 87.33       0.00       0.36       0.69      47.09      36.15      83.24        0.15     0.04   0.953
  sub_90624                 87.33       0.00       0.36       0.67      48.30      34.88      83.18        0.04     0.01   0.952
  sub_90625                 87.33       0.00       0.36       0.57      53.23      29.75      82.97        0.07     0.02   0.950
  sub_90626                 87.33       0.00       0.36       0.51      56.33      26.50      82.84        0.06     0.02   0.949
  sub_90627                 87.33       0.00       0.36       0.90      36.69      47.00      83.69        0.11     0.03   0.958
  sub_90628                 87.33       0.00       0.36       0.74      44.84      38.50      83.33        0.17     0.05   0.954
  sub_90629                 87.33       0.00       0.36       0.85      38.90      44.69      83.59        0.12     0.03   0.957
  sub_90630                 87.33       0.00       0.36       0.36      63.68      18.84      82.52        0.07     0.02   0.945
  sub_90631                 87.33       0.00       0.36       0.56      53.48      29.48      82.96        0.07     0.02   0.950
  sub_90632                 87.33       0.00       0.36       0.58      52.48      30.53      83.00        0.07     0.02   0.950
  sub_90633                 87.33       0.00       0.36       0.36      63.78      18.74      82.52        0.08     0.02   0.945
  sub_90634                 87.33       0.00       0.36       0.54      54.49      28.42      82.92        0.05     0.01   0.949
  sub_90635                 87.33       0.00       0.36       0.80      41.84      41.62      83.46        0.07     0.02   0.956
  sub_90636                 87.33       0.00       0.36       0.60      51.53      31.51      83.04        0.08     0.02   0.951
  sub_90637                 87.33       0.00       0.36       0.56      53.74      29.21      82.95        0.09     0.02   0.950
  sub_90638                 87.33       0.00       0.36       0.33      65.39      17.05      82.45        0.13     0.03   0.944
  sub_90639                 87.33       0.00       0.36       0.85      39.03      44.56      83.58        0.09     0.02   0.957
  sub_90640                 87.33       0.00       0.36       0.43      60.30      22.37      82.67        0.10     0.03   0.947
  sub_90641                 87.33       0.00       0.36       0.53      55.35      27.53      82.88        0.11     0.03   0.949
  sub_90642                 87.33       0.00       0.36       0.66      48.44      34.74      83.18        0.07     0.02   0.952
  sub_90643                 87.33       0.00       0.36       0.43      60.40      22.26      82.66        0.15     0.04   0.947
  sub_90644                 87.33       0.00       0.36       0.37      63.28      19.25      82.54        0.08     0.02   0.945
  sub_90645                 87.33       0.00       0.36       0.52      55.58      27.29      82.87        0.04     0.01   0.949
  sub_90646                 87.33       0.00       0.36       0.98      32.70      51.16      83.86        0.07     0.02   0.960
  sub_90647                 87.33       0.00       0.36       1.35      14.28      70.37      84.65        0.09     0.02   0.969
  sub_90648                 87.33       0.00       0.36       0.35      63.97      18.54      82.51        0.06     0.02   0.945
  sub_90649                 87.33       0.00       0.36       0.52      55.55      27.32      82.87        0.09     0.02   0.949
  sub_90650                 87.33       0.00       0.36       0.51      55.97      26.88      82.85        0.17     0.04   0.949
  sub_90651                 87.33       0.00       0.36       0.42      60.52      22.14      82.66        0.09     0.02   0.946
  sub_90652                 87.33       0.00       0.36       0.54      54.87      28.03      82.90        0.06     0.02   0.949
  sub_90653                 87.33       0.00       0.36       0.65      49.04      34.11      83.15        0.05     0.01   0.952
  sub_90654                 87.33       0.00       0.36       0.75      44.28      39.08      83.36        0.02     0.01   0.954
  sub_90655                 87.33       0.00       0.36       0.48      57.46      25.33      82.79        0.08     0.02   0.948
  sub_90656                 87.33       0.00       0.36       0.86      38.60      45.00      83.60        0.09     0.02   0.957
  sub_90657                 87.33       0.00       0.36       0.90      36.41      47.29      83.70        0.10     0.03   0.958
  sub_90658                 87.33       0.00       0.36       0.52      55.86      27.00      82.86        0.10     0.03   0.949
  sub_90659                 87.33       0.00       0.36       1.18      22.55      61.75      84.30        0.05     0.01   0.965
  sub_90662                 87.33       0.00       0.36       0.60      51.47      31.58      83.05        0.02     0.01   0.951
  sub_90663                 87.33       0.00       0.36       0.82      40.39      43.14      83.53        0.21     0.06   0.956
  sub_90664                 87.33       0.00       0.36       1.63       0.00      85.27      85.27        0.02     0.00   0.976
  sub_90665                 87.33       0.00       0.36       0.76      43.54      39.85      83.39        0.08     0.02   0.955
  sub_90669                 87.33       0.00       0.36       0.62      50.81      32.26      83.08        0.03     0.01   0.951
  sub_90670                 87.33       0.00       0.36       0.45      59.10      23.61      82.72        0.05     0.01   0.947
  sub_90671                 87.33       0.00       0.36       0.50      56.86      25.95      82.81        0.02     0.01   0.948
  sub_90672                 87.33       0.00       0.36       0.66      48.68      34.49      83.17        0.07     0.02   0.952
  sub_90673                 87.33       0.00       0.36       0.84      39.61      43.95      83.56        0.08     0.02   0.957
  sub_90674                 87.33       0.00       0.36       0.24      69.54      12.73      82.27        0.11     0.03   0.942
  sub_90675                 87.33       0.00       0.36       0.37      63.14      19.41      82.54        0.12     0.03   0.945
  sub_90676                 87.33       0.00       0.36       0.55      54.26      28.66      82.93        0.10     0.03   0.950
  sub_90677                 87.33       0.00       0.36       0.80      41.59      41.89      83.47        0.05     0.01   0.956
  sub_90678                 87.33       0.00       0.36       0.72      45.77      37.52      83.29        0.06     0.02   0.954
  sub_90679                 87.33       0.00       0.36       0.79      42.19      41.26      83.45        0.13     0.03   0.956
  sub_90680                 87.33       0.00       0.36       0.45      59.03      23.69      82.72        0.12     0.03   0.947
  sub_90681                 87.33       0.00       0.36       0.80      41.54      41.94      83.48        0.05     0.01   0.956
  sub_90682                 87.33       0.00       0.36       0.72      45.60      37.70      83.30        0.08     0.02   0.954
  sub_90683                 87.33       0.00       0.36       1.19      22.06      62.26      84.32        0.05     0.01   0.965
  sub_90684                 87.33       0.00       0.36       0.27      68.43      13.88      82.31        0.04     0.01   0.943
  sub_90685                 87.33       0.00       0.36       0.19      72.01      10.15      82.16        0.03     0.01   0.941
  sub_90686                 87.33       0.00       0.36       0.72      45.77      37.52      83.29        0.04     0.01   0.954
  sub_90688                 87.33       0.00       0.36       0.54      54.49      28.42      82.92        0.05     0.01   0.949
  sub_90689                 87.33       0.00       0.36       0.87      38.15      45.48      83.62        0.04     0.01   0.958
  sub_90690                 87.33       0.00       0.36       0.68      47.56      35.66      83.22        0.05     0.01   0.953
  sub_90691                 87.33       0.00       0.36       0.59      52.36      30.64      83.01        0.05     0.01   0.950
  sub_90692                 87.33       0.00       0.36       0.51      56.31      26.53      82.84        0.04     0.01   0.949
  sub_90693                 87.33       0.00       0.36       0.96      33.66      50.16      83.82        0.03     0.01   0.960
  sub_90694                 87.33       0.00       0.36       1.31      15.82      68.77      84.59        0.03     0.01   0.969
  sub_90695                 87.33       0.00       0.36       0.73      44.96      38.37      83.33        0.03     0.01   0.954
  sub_90696                 87.33       0.00       0.36       0.81      40.87      42.63      83.50        0.03     0.01   0.956
  sub_90697                 87.33       0.00       0.36       0.84      39.70      43.85      83.56        0.03     0.01   0.957
  sub_90698                 87.33       0.00       0.36       0.95      34.28      49.51      83.79        0.03     0.01   0.959
  sub_90699                 87.33       0.00       0.36       1.12      25.37      58.81      84.17        0.02     0.01   0.964
  sub_90700                 87.33       0.00       0.36       0.31      66.17      16.24      82.41        0.02     0.00   0.944
  sub_90701                 87.33       0.00       0.36       0.29      67.32      15.05      82.36        0.01     0.00   0.943
  sub_90702                 87.33       0.00       0.36       0.33      65.39      17.05      82.45        0.01     0.00   0.944
  sub_90703                 87.33       0.00       0.36       0.84      39.77      43.79      83.55        0.06     0.02   0.957
  sub_90704                 87.33       0.00       0.36       0.81      41.35      42.13      83.48        0.07     0.02   0.956
  sub_90705                 87.33       0.00       0.36       0.87      38.06      45.56      83.63        0.11     0.03   0.958
  sub_90706                 87.33       0.00       0.36       0.60      51.84      31.20      83.03        0.03     0.01   0.951
  sub_90707                 87.33       0.00       0.36       0.40      61.80      20.80      82.60        0.03     0.01   0.946
  sub_90708                 87.33       0.00       0.36       0.97      33.17      50.67      83.84        0.12     0.03   0.960
  sub_90709                 87.33       0.00       0.36       0.72      45.77      37.52      83.29        0.08     0.02   0.954
  sub_90710                 87.33       0.00       0.36       0.94      34.81      48.96      83.77        0.13     0.03   0.959
  sub_90724                 87.33       0.00       0.36       0.98      32.70      51.16      83.86        0.04     0.01   0.960
  sub_90725                 87.33       0.00       0.36       1.63       0.00      85.27      85.27        0.02     0.00   0.976
  sub_90726                 87.33       0.00       0.36       1.63       0.00      85.27      85.27        0.01     0.00   0.976
  sub_90727                 87.33       0.00       0.36       1.63       0.00      85.27      85.27        0.01     0.00   0.976
  sub_90728                 87.33       0.00       0.36       1.63       0.00      85.27      85.27        0.05     0.01   0.976
  sub_90729                 87.33       0.00       0.36       1.63       0.00      85.27      85.27        0.02     0.01   0.976
  sub_90730                 87.33       0.00       0.36       1.63       0.00      85.27      85.27        0.04     0.01   0.976
  sub_90731                 87.33       0.00       0.36       1.63       0.00      85.27      85.27        0.05     0.01   0.976
  sub_90732                 87.33       0.00       0.36       1.63       0.00      85.27      85.27        0.01     0.00   0.976
  sub_90733                 87.33       0.00       0.36       0.48      57.70      25.08      82.78        0.04     0.01   0.948
  
  
  ******************
  Node Depth Summary
  ******************
  
  ---------------------------------------------------------------------------------
                                 Average  Maximum  Maximum  Time of Max    Reported
                                   Depth    Depth      HGL   Occurrence   Max Depth
  Node                 Type       Meters   Meters   Meters  days hr:min      Meters
  ---------------------------------------------------------------------------------
  j_9006F              JUNCTION     0.40     2.20     1.84     0  02:40        1.96
  j_90334              JUNCTION     0.26     1.79     1.58     0  02:40        1.79
  j_90335              JUNCTION     0.32     2.18     1.77     0  02:40        2.13
  j_90336              JUNCTION     0.25     2.00     1.83     0  02:41        1.89
  j_90363              JUNCTION     0.34     1.95     1.60     0  02:41        1.95
  j_90364              JUNCTION     0.33     1.94     1.59     0  02:41        1.94
  j_90365              JUNCTION     0.33     1.95     1.60     0  02:41        1.93
  j_90366              JUNCTION     0.28     1.90     1.59     0  02:41        1.87
  j_90367              JUNCTION     0.36     2.05     1.56     0  02:41        2.05
  j_90368              JUNCTION     0.27     2.05     1.76     0  02:41        1.85
  j_90369              JUNCTION     0.28     2.06     1.76     0  02:40        2.02
  j_90370              JUNCTION     0.37     2.20     1.69     0  02:40        2.20
  j_90371              JUNCTION     0.38     2.22     1.66     0  02:42        2.11
  j_90372              JUNCTION     0.22     2.01     1.76     0  02:42        1.69
  j_90373              JUNCTION     0.31     2.24     1.77     0  02:42        1.91
  j_90374              JUNCTION     0.20     2.26     1.98     0  02:42        1.50
  j_90375              JUNCTION     0.23     2.11     1.77     0  02:42        1.56
  j_90376              JUNCTION     0.12     1.48     1.33     0  02:42        1.06
  j_90377              JUNCTION     0.13     1.79     1.62     0  02:42        1.11
  j_90378              JUNCTION     0.23     2.05     1.65     0  02:41        1.78
  j_90379              JUNCTION     0.19     1.85     1.60     0  02:41        1.64
  j_90380              JUNCTION     0.23     1.90     1.57     0  02:41        1.81
  j_90381              JUNCTION     0.28     1.98     1.53     0  02:51        1.91
  j_90382              JUNCTION     0.45     2.43     1.51     0  02:51        2.37
  j_90383              JUNCTION     0.43     2.38     1.56     0  02:51        2.33
  j_90384              JUNCTION     0.31     2.05     1.59     0  02:40        1.98
  j_90385              JUNCTION     0.25     2.00     1.63     0  02:40        1.90
  j_90386              JUNCTION     0.21     1.80     1.57     0  02:41        1.77
  j_90387              JUNCTION     0.23     1.77     1.57     0  02:40        1.72
  j_90388              JUNCTION     0.32     1.90     1.51     0  02:40        1.90
  j_90389              JUNCTION     0.39     2.20     1.59     0  02:40        2.16
  j_90390              JUNCTION     0.37     2.15     1.58     0  02:42        2.12
  j_90391              JUNCTION     0.27     1.93     1.69     0  02:40        1.85
  j_90392              JUNCTION     0.28     2.05     1.80     0  02:40        1.89
  j_90393              JUNCTION     0.25     2.07     1.88     0  02:41        1.89
  j_90394              JUNCTION     0.22     1.88     1.78     0  02:41        1.83
  j_90395              JUNCTION     0.21     1.90     1.82     0  02:41        1.81
  j_90396              JUNCTION     0.19     1.87     1.85     0  02:41        1.75
  j_90397              JUNCTION     0.43     2.35     1.58     0  02:51        2.31
  j_90398              JUNCTION     0.37     2.25     1.63     0  02:41        2.24
  j_90399              JUNCTION     0.25     1.95     1.64     0  02:41        1.94
  j_90400              JUNCTION     0.23     1.90     1.64     0  02:40        1.89
  j_90401              JUNCTION     0.24     1.92     1.61     0  02:41        1.92
  j_90402              JUNCTION     0.27     2.01     1.65     0  02:40        2.00
  j_90403              JUNCTION     0.23     1.90     1.65     0  02:40        1.89
  j_90404              JUNCTION     0.25     1.96     1.66     0  02:40        1.94
  j_90405              JUNCTION     0.35     2.20     1.64     0  02:41        2.19
  j_90406              JUNCTION     0.33     2.15     1.65     0  02:41        2.14
  j_90407              JUNCTION     0.29     2.05     1.64     0  02:40        2.05
  j_90408              JUNCTION     0.27     1.97     1.65     0  02:40        1.97
  j_90427              JUNCTION     0.34     2.05     1.62     0  02:41        1.90
  j_90428              JUNCTION     0.29     1.95     1.58     0  02:37        1.69
  j_90430              JUNCTION     0.10     0.38    -1.19     0  02:41        0.36
  j_90433              JUNCTION     0.17     2.14     1.77     0  02:42        1.12
  j_90434              JUNCTION     0.22     2.20     1.77     0  02:42        1.18
  j_90435              JUNCTION     0.13     2.15     1.78     0  02:42        0.87
  j_90436              JUNCTION     0.12     1.54     1.08     0  02:41        0.90
  j_90437              JUNCTION     0.38     3.15     1.79     0  02:41        1.47
  j_90438              JUNCTION     0.45     3.05     1.70     0  02:41        1.73
  j_90439              JUNCTION     0.12     1.76     1.55     0  02:41        0.94
  j_90440              JUNCTION     0.16     1.78     1.62     0  02:41        1.24
  j_90441              JUNCTION     0.09     1.77     1.64     0  02:41        0.86
  j_90442              JUNCTION     0.38     2.21     1.57     0  02:41        1.88
  j_90443              JUNCTION     0.48     2.72     1.42     0  02:41        1.93
  j_90444              JUNCTION     0.44     2.31     1.20     0  02:41        2.11
  j_90445              JUNCTION     0.19     2.13     1.70     0  02:41        1.44
  j_90446              JUNCTION     0.17     1.95     1.59     0  02:41        1.39
  j_90447              JUNCTION     0.14     1.83     1.58     0  02:41        1.29
  j_90448              JUNCTION     0.17     1.88     1.61     0  02:41        1.49
  j_90449              JUNCTION     0.24     1.81     1.33     0  02:41        1.68
  j_90450              JUNCTION     0.22     1.78     1.31     0  02:41        1.67
  j_90451              JUNCTION     0.44     2.28     1.26     0  02:41        2.21
  j_90452              JUNCTION     0.24     1.86     1.44     0  02:51        1.79
  j_90453              JUNCTION     0.45     2.39     1.43     0  02:51        2.32
  j_90454              JUNCTION     0.28     2.15     1.68     0  02:40        2.06
  j_90455              JUNCTION     0.30     2.19     1.65     0  02:40        2.07
  j_90456              JUNCTION     0.33     2.28     1.62     0  02:41        2.09
  j_90457              JUNCTION     0.34     2.31     1.55     0  02:41        1.98
  j_90459              JUNCTION     0.39     2.37     1.32     0  02:41        1.90
  j_90460              JUNCTION     0.37     2.43     1.47     0  02:41        1.91
  j_90461              JUNCTION     0.44     2.52     1.44     0  02:41        2.03
  j_90462              JUNCTION     0.43     2.47     1.49     0  02:41        2.14
  j_90463              JUNCTION     0.38     2.37     1.64     0  02:41        2.23
  j_90464              JUNCTION     0.35     2.31     1.68     0  02:41        2.21
  j_90465              JUNCTION     0.32     2.20     1.66     0  02:41        2.17
  j_90466              JUNCTION     0.29     2.15     1.71     0  02:40        2.08
  j_90467              JUNCTION     0.31     2.07     1.65     0  02:40        2.07
  j_90468              JUNCTION     0.34     2.18     1.66     0  02:51        2.17
  j_90469              JUNCTION     0.35     2.20     1.64     0  02:41        2.20
  j_90470              JUNCTION     0.39     2.28     1.61     0  02:41        2.27
  j_90471              JUNCTION     0.40     2.31     1.61     0  02:41        2.28
  j_90477              JUNCTION     0.34     1.92     1.61     0  02:37        1.92
  j_90478              JUNCTION     0.38     2.00     1.59     0  02:40        2.00
  j_90479              JUNCTION     0.34     1.91     1.59     0  02:40        1.91
  j_90480              JUNCTION     0.32     1.87     1.62     0  02:37        1.86
  j_90481              JUNCTION     0.38     2.01     1.61     0  02:50        2.00
  j_90482              JUNCTION     0.40     2.06     1.61     0  02:50        2.05
  j_90483              JUNCTION     0.33     1.87     1.59     0  02:37        1.87
  j_90484              JUNCTION     0.29     1.80     1.60     0  02:37        1.79
  j_90485              JUNCTION     0.33     1.92     1.59     0  02:37        1.91
  j_90486              JUNCTION     0.38     2.05     1.59     0  02:41        2.01
  j_90487              JUNCTION     0.39     2.12     1.60     0  02:41        2.07
  j_90488              JUNCTION     0.42     2.22     1.62     0  02:41        2.08
  j_90489              JUNCTION     0.27     1.82     1.59     0  02:41        1.77
  j_90490              JUNCTION     0.32     1.90     1.59     0  02:41        1.88
  j_90491              JUNCTION     0.44     2.15     1.61     0  02:40        2.14
  j_90492              JUNCTION     0.46     2.22     1.60     0  02:51        2.20
  j_90493              JUNCTION     0.33     1.90     1.58     0  02:37        1.89
  j_90494              JUNCTION     0.50     2.32     1.58     0  02:40        2.27
  j_90495              JUNCTION     0.50     2.30     1.59     0  02:51        2.28
  j_90496              JUNCTION     0.33     1.89     1.57     0  02:41        1.89
  j_90497              JUNCTION     0.26     1.77     1.59     0  02:39        1.74
  j_90498              JUNCTION     0.37     2.10     1.62     0  02:41        2.02
  j_90499              JUNCTION     0.39     2.08     1.61     0  02:41        2.04
  j_90500              JUNCTION     0.36     1.99     1.61     0  02:51        1.96
  j_90501              JUNCTION     0.33     1.85     1.58     0  02:40        1.84
  j_90502              JUNCTION     0.32     1.85     1.62     0  02:39        1.80
  j_90503              JUNCTION     0.32     1.82     1.59     0  02:39        1.80
  j_90504              JUNCTION     0.36     1.84     1.56     0  02:39        1.84
  j_90505              JUNCTION     0.42     2.11     1.61     0  02:40        2.08
  j_90506              JUNCTION     0.44     2.11     1.60     0  02:40        2.09
  j_90507              JUNCTION     0.38     1.96     1.59     0  02:40        1.95
  j_90508              JUNCTION     0.41     2.02     1.57     0  02:40        2.02
  j_90509              JUNCTION     0.33     1.88     1.63     0  02:38        1.81
  j_90510              JUNCTION     0.37     1.91     1.60     0  02:40        1.90
  j_90511              JUNCTION     0.52     2.18     1.59     0  02:39        2.18
  j_90512              JUNCTION     0.48     2.16     1.62     0  02:39        2.13
  j_90513              JUNCTION     0.33     1.88     1.62     0  02:38        1.85
  j_90514              JUNCTION     0.33     1.92     1.60     0  02:39        1.90
  j_90515              JUNCTION     0.37     2.39     1.98     0  02:39        1.97
  j_90516              JUNCTION     0.34     2.13     1.69     0  02:39        1.92
  j_90517              JUNCTION     0.44     2.50     1.58     0  02:41        2.27
  j_90518              JUNCTION     0.46     2.52     1.64     0  02:41        2.32
  j_90519              JUNCTION     0.45     2.43     1.60     0  02:41        2.38
  j_90520              JUNCTION     0.29     1.96     1.61     0  02:40        1.91
  j_90521              JUNCTION     0.24     1.82     1.58     0  02:40        1.80
  j_90522              JUNCTION     0.27     1.82     1.55     0  02:40        1.82
  j_90523              JUNCTION     0.24     1.80     1.60     0  02:40        1.77
  j_90524              JUNCTION     0.45     2.04     1.59     0  02:39        2.04
  j_90525              JUNCTION     0.41     1.93     1.58     0  02:39        1.93
  j_90526              JUNCTION     0.38     1.85     1.59     0  02:39        1.85
  j_90527              JUNCTION     0.35     1.78     1.60     0  02:39        1.78
  j_90549              JUNCTION     0.13     1.40     0.99     0  02:41        0.76
  j_90550              JUNCTION     0.44     1.39     0.16     0  02:51        1.38
  j_90551              JUNCTION     0.03     0.12     0.17     0  02:51        0.11
  j_90553              JUNCTION     0.40     2.00     1.62     0  02:37        2.00
  j_90554              JUNCTION     0.37     1.97     1.63     0  02:40        1.97
  j_90555              JUNCTION     0.33     1.95     1.71     0  02:37        1.87
  j_90556              JUNCTION     0.39     2.00     1.63     0  02:37        2.00
  j_90557              JUNCTION     0.40     2.02     1.64     0  02:40        2.01
  j_90558              JUNCTION     0.52     2.33     1.62     0  02:40        2.31
  j_90559              JUNCTION     0.45     2.20     1.62     0  02:40        2.19
  j_90560              JUNCTION     0.45     2.17     1.61     0  02:40        2.17
  j_90561              JUNCTION     0.37     1.99     1.61     0  02:50        1.97
  j_90562              JUNCTION     0.41     2.04     1.59     0  02:40        2.04
  j_90563              JUNCTION     0.49     2.33     1.63     0  02:40        2.25
  j_90564              JUNCTION     0.53     2.45     1.64     0  02:40        2.33
  j_90565              JUNCTION     0.33     1.95     1.61     0  02:40        1.89
  j_90566              JUNCTION     0.27     1.82     1.62     0  02:38        1.75
  j_90567              JUNCTION     0.05     1.49     1.52     0  02:42        0.46
  j_90568              JUNCTION     0.46     1.92     0.81     0  02:42        1.60
  j_90569              JUNCTION     0.34     1.95     1.63     0  02:40        1.87
  j_90570              JUNCTION     0.23     1.70     1.62     0  02:38        1.63
  j_90571              JUNCTION     0.36     2.04     1.61     0  02:40        1.95
  j_90572              JUNCTION     0.55     2.50     1.64     0  02:40        2.33
  j_90573              JUNCTION     0.33     1.93     1.59     0  02:40        1.88
  j_90574              JUNCTION     0.52     2.35     1.55     0  02:40        2.23
  j_90575              JUNCTION     0.56     2.54     1.63     0  02:40        2.21
  j_90576              JUNCTION     0.49     2.55     1.63     0  02:39        1.99
  j_90577              JUNCTION     0.48     2.65     1.67     0  02:40        1.87
  j_90578              JUNCTION     0.47     2.73     1.78     0  02:40        1.87
  j_90579              JUNCTION     0.44     2.65     1.77     0  02:40        1.83
  j_90580              JUNCTION     0.26     1.85     1.72     0  02:39        1.66
  j_90581              JUNCTION     0.30     1.82     1.58     0  02:39        1.77
  j_90582              JUNCTION     0.30     1.86     1.62     0  02:39        1.76
  j_90583              JUNCTION     0.32     1.90     1.59     0  02:40        1.80
  j_90584              JUNCTION     0.34     1.95     1.60     0  02:40        1.87
  j_90585              JUNCTION     0.53     2.45     1.62     0  02:40        2.24
  j_90586              JUNCTION     0.55     2.43     1.61     0  02:40        2.32
  j_90587              JUNCTION     0.55     2.37     1.58     0  02:40        2.32
  j_90588              JUNCTION     0.37     1.93     1.57     0  02:40        1.90
  j_90589              JUNCTION     0.34     1.82     1.54     0  02:40        1.82
  j_90590              JUNCTION     0.33     1.82     1.57     0  02:51        1.81
  j_90591              JUNCTION     0.50     2.22     1.61     0  02:40        2.21
  j_90592              JUNCTION     0.53     2.28     1.61     0  02:40        2.27
  j_90593              JUNCTION     0.57     2.40     1.61     0  02:40        2.35
  j_90594              JUNCTION     0.53     2.32     1.62     0  02:40        2.28
  j_90595              JUNCTION     0.37     1.96     1.62     0  02:40        1.93
  j_90596              JUNCTION     0.37     1.93     1.61     0  02:39        1.91
  j_90597              JUNCTION     0.35     1.87     1.59     0  02:38        1.87
  j_90598              JUNCTION     0.34     1.87     1.62     0  02:38        1.84
  j_90599              JUNCTION     0.36     1.88     1.59     0  02:38        1.88
  j_90600              JUNCTION     0.33     1.95     1.73     0  02:38        1.82
  j_90601              JUNCTION     0.31     1.96     1.79     0  02:38        1.77
  j_90602              JUNCTION     0.37     1.86     1.59     0  02:39        1.86
  j_90603              JUNCTION     0.38     1.89     1.60     0  02:39        1.88
  j_90604              JUNCTION     0.41     1.94     1.58     0  02:39        1.94
  j_90605              JUNCTION     0.45     2.08     1.62     0  02:39        2.05
  j_90606              JUNCTION     0.45     2.07     1.64     0  02:39        2.03
  j_90607              JUNCTION     0.42     2.00     1.62     0  02:39        1.98
  j_90608              JUNCTION     0.40     1.94     1.60     0  02:39        1.94
  j_90609              JUNCTION     0.33     1.73     1.56     0  02:38        1.73
  j_90610              JUNCTION     0.36     1.82     1.60     0  02:38        1.81
  j_90611              JUNCTION     0.38     1.90     1.63     0  02:39        1.87
  j_90612              JUNCTION     0.35     1.83     1.62     0  02:38        1.81
  j_90613              JUNCTION     0.31     1.70     1.60     0  02:39        1.70
  j_90615              JUNCTION     0.09     2.05     1.76     0  02:41        0.65
  j_90616              JUNCTION     0.15     2.40     2.08     0  02:41        0.95
  j_90617              JUNCTION     0.14     2.30     2.07     0  02:41        1.02
  j_90618              JUNCTION     0.21     1.94     1.57     0  02:41        1.24
  j_90619              JUNCTION     0.48     2.74     1.74     0  02:40        1.81
  j_90620              JUNCTION     0.54     2.70     1.65     0  02:40        1.93
  j_90621              JUNCTION     0.51     2.60     1.62     0  02:40        2.04
  j_90623              JUNCTION     0.51     2.50     1.60     0  02:40        2.16
  j_90624              JUNCTION     0.45     2.40     1.61     0  02:40        2.05
  j_90625              JUNCTION     0.46     2.44     1.74     0  02:40        2.19
  j_90626              JUNCTION     0.50     2.50     1.68     0  02:40        2.23
  j_90627              JUNCTION     0.53     2.50     1.62     0  02:40        2.26
  j_90628              JUNCTION     0.34     2.00     1.59     0  02:40        1.96
  j_90629              JUNCTION     0.33     1.96     1.61     0  02:40        1.93
  j_90630              JUNCTION     0.16     1.80     1.61     0  02:40        1.15
  j_90631              JUNCTION     0.36     2.05     1.63     0  02:40        2.02
  j_90632              JUNCTION     0.37     2.07     1.62     0  02:40        2.04
  j_90633              JUNCTION     0.38     2.10     1.62     0  02:40        2.03
  j_90634              JUNCTION     0.58     2.50     1.62     0  02:40        2.37
  j_90635              JUNCTION     0.46     2.40     1.70     0  02:40        2.21
  j_90636              JUNCTION     0.43     2.30     1.73     0  02:40        2.18
  j_90637              JUNCTION     0.49     2.35     1.64     0  02:40        2.25
  j_90638              JUNCTION     0.40     2.08     1.60     0  02:40        2.08
  j_90639              JUNCTION     0.37     2.04     1.64     0  02:40        2.02
  j_90640              JUNCTION     0.32     1.92     1.63     0  02:40        1.91
  j_90641              JUNCTION     0.42     2.54     1.70     0  02:40        1.81
  j_90642              JUNCTION     0.37     2.47     1.74     0  02:40        1.71
  j_90643              JUNCTION     0.37     2.47     1.75     0  02:40        1.70
  j_90644              JUNCTION     0.15     1.90     1.75     0  02:40        1.13
  j_90645              JUNCTION     0.22     1.80     1.87     0  02:40        1.60
  j_90646              JUNCTION     0.28     1.90     1.80     0  02:40        1.77
  j_90647              JUNCTION     0.23     1.70     1.73     0  02:40        1.66
  j_90648              JUNCTION     0.33     1.92     1.63     0  02:40        1.91
  j_90649              JUNCTION     0.30     1.83     1.62     0  02:40        1.83
  j_90650              JUNCTION     0.37     1.98     1.60     0  02:40        1.98
  j_90651              JUNCTION     0.37     2.26     1.82     0  02:40        2.11
  j_90652              JUNCTION     0.36     2.22     1.80     0  02:40        2.11
  j_90653              JUNCTION     0.29     2.05     1.81     0  02:40        1.93
  j_90654              JUNCTION     0.48     2.19     1.59     0  02:40        2.19
  j_90655              JUNCTION     0.50     2.25     1.59     0  02:40        2.24
  j_90656              JUNCTION     0.50     2.30     1.61     0  02:40        2.25
  j_90657              JUNCTION     0.10     1.57     1.80     0  02:40        1.14
  j_90658              JUNCTION     0.12     1.65     1.78     0  02:40        1.22
  j_90659              JUNCTION     0.14     1.70     1.72     0  03:45        1.25
  j_90662              JUNCTION     0.11     1.89     1.57     0  02:41        0.88
  j_90663              JUNCTION     0.39     2.05     1.62     0  02:40        2.05
  j_90664              JUNCTION     0.32     1.90     1.63     0  02:40        1.89
  j_90665              JUNCTION     0.47     2.62     1.65     0  02:40        1.85
  j_90669              JUNCTION     0.41     1.83     1.60     0  02:41        1.83
  j_90670              JUNCTION     0.43     1.87     1.62     0  02:41        1.85
  j_90671              JUNCTION     0.44     1.86     1.60     0  02:41        1.85
  j_90672              JUNCTION     0.43     2.10     1.64     0  02:40        2.07
  j_90673              JUNCTION     0.47     2.17     1.64     0  02:40        2.13
  j_90674              JUNCTION     0.49     2.24     1.64     0  02:40        2.19
  j_90675              JUNCTION     0.40     1.85     1.63     0  02:40        1.82
  j_90676              JUNCTION     0.42     1.83     1.59     0  02:41        1.83
  j_90677              JUNCTION     0.46     1.87     1.58     0  02:41        1.87
  j_90678              JUNCTION     0.34     1.67     1.57     0  02:41        1.67
  j_90679              JUNCTION     0.31     1.58     1.56     0  02:41        1.58
  j_90680              JUNCTION     0.40     1.92     1.62     0  02:40        1.90
  j_90681              JUNCTION     0.43     2.00     1.62     0  02:40        1.98
  j_90682              JUNCTION     0.28     1.60     1.57     0  02:40        1.60
  j_90683              JUNCTION     0.44     2.05     1.60     0  02:40        2.05
  j_90684              JUNCTION     0.40     1.95     1.59     0  02:40        1.95
  j_90685              JUNCTION     0.24     1.72     1.83     0  02:40        1.49
  j_90686              JUNCTION     0.41     2.04     1.64     0  02:40        2.00
  j_90688              JUNCTION     0.03     0.11     0.56     0  02:52        0.11
  j_90689              JUNCTION     0.09     0.83     0.53     0  02:54        0.83
  j_90690              JUNCTION     0.08     0.91     0.66     0  02:51        0.84
  j_90691              JUNCTION     0.05     1.99     2.09     0  02:44        0.64
  j_90692              JUNCTION     0.03     1.94     2.14     0  02:44        0.64
  j_90693              JUNCTION     0.07     1.36     1.39     0  02:51        0.87
  j_90694              JUNCTION     0.06     1.15     1.21     0  02:53        0.83
  j_90695              JUNCTION     0.03     1.40     1.90     0  02:52        0.40
  j_90696              JUNCTION     0.07     1.25     1.25     0  02:53        0.88
  j_90697              JUNCTION     0.08     1.48     1.41     0  02:53        0.92
  j_90698              JUNCTION     0.09     1.75     1.63     0  02:53        0.92
  j_90699              JUNCTION     0.09     1.50     1.32     0  02:42        0.89
  j_90700              JUNCTION     0.02     1.70     2.20     0  02:52        0.38
  j_90701              JUNCTION     0.02     1.70     2.20     0  02:53        0.35
  j_90702              JUNCTION     0.02     1.70     2.20     0  02:53        0.30
  j_90703              JUNCTION     0.41     2.08     1.60     0  02:40        2.08
  j_90704              JUNCTION     0.30     1.82     1.60     0  02:37        1.81
  j_90705              JUNCTION     0.32     1.84     1.58     0  02:37        1.84
  j_90706              JUNCTION     0.47     2.14     1.60     0  02:39        2.14
  j_90707              JUNCTION     0.41     1.99     1.61     0  02:39        1.98
  j_90708              JUNCTION     0.30     1.79     1.68     0  02:51        1.76
  j_90709              JUNCTION     0.35     1.76     1.56     0  02:36        1.76
  j_90710              JUNCTION     0.29     1.62     1.57     0  02:37        1.62
  j_90724              JUNCTION     0.44     1.88     1.62     0  02:41        1.86
  j_90725              JUNCTION     0.30     1.77     1.77     0  02:41        1.63
  j_90726              JUNCTION     0.28     1.72     1.77     0  02:41        1.58
  j_90727              JUNCTION     0.26     1.67     1.77     0  02:41        1.54
  j_90728              JUNCTION     0.28     1.71     1.77     0  02:41        1.58
  j_90729              JUNCTION     0.23     1.54     1.77     0  02:41        1.41
  j_90730              JUNCTION     0.33     1.78     1.70     0  02:41        1.72
  j_90731              JUNCTION     0.27     1.67     1.77     0  02:41        1.56
  j_90732              JUNCTION     0.25     1.62     1.77     0  02:41        1.51
  j_90733              JUNCTION     0.36     1.78     1.64     0  02:41        1.76
  j_91272              JUNCTION     0.14     1.66     1.83     0  02:41        1.39
  j_91273              JUNCTION     0.08     1.68     2.15     0  02:42        1.09
  j_91274              JUNCTION     0.13     1.65     1.88     0  02:42        1.37
  j_91275              JUNCTION     0.07     1.69     2.16     0  02:42        1.13
  j_91276              JUNCTION     0.11     1.59     1.87     0  02:42        1.47
  j_91277              JUNCTION     0.06     1.65     2.16     0  02:43        1.24
  j_91278              JUNCTION     0.10     1.55     1.90     0  02:43        1.55
  j_91279              JUNCTION     0.07     1.67     2.17     0  02:43        1.40
  j_91292              JUNCTION     0.12     2.06     2.05     0  02:41        1.24
  j_91293              JUNCTION     0.18     2.23     2.00     0  02:42        1.45
  j_91294              JUNCTION     0.05     1.67     1.98     0  02:42        0.92
  j_90552              OUTFALL      0.00     0.00    -1.29     0  00:00        0.00
  j_90431              OUTFALL      0.10     0.36    -1.25     0  02:54        0.36
  
  
  *******************
  Node Inflow Summary
  *******************
  
  -------------------------------------------------------------------------------------------------
                                  Maximum  Maximum                  Lateral       Total        Flow
                                  Lateral    Total  Time of Max      Inflow      Inflow     Balance
                                   Inflow   Inflow   Occurrence      Volume      Volume       Error
  Node                 Type           CMS      CMS  days hr:min    10^6 ltr    10^6 ltr     Percent
  -------------------------------------------------------------------------------------------------
  j_9006F              JUNCTION     0.009    0.042     0  02:40      0.0323      0.0334       0.000
  j_90334              JUNCTION     0.025    0.039     0  02:55      0.0984       0.102       0.000
  j_90335              JUNCTION     0.042    0.042     0  02:55       0.159       0.159       0.000
  j_90336              JUNCTION     0.007    0.127     0  02:41      0.0261       0.138       0.000
  j_90363              JUNCTION     0.047    0.047     0  02:55       0.178       0.178       0.000
  j_90364              JUNCTION     0.012    0.082     0  02:41      0.0464       0.313      -0.010
  j_90365              JUNCTION     0.002    0.002     0  02:40     0.00767     0.00797       0.511
  j_90366              JUNCTION     0.016    0.016     0  02:55      0.0589      0.0589       0.000
  j_90367              JUNCTION     0.014    0.111     0  02:41      0.0544        0.45      -0.019
  j_90368              JUNCTION     0.000    0.108     0  02:42           0      0.0568       0.201
  j_90369              JUNCTION     0.035    0.035     0  02:55       0.135       0.135       0.000
  j_90370              JUNCTION     0.016    0.094     0  02:53      0.0604       0.354      -0.071
  j_90371              JUNCTION     0.021    0.172     0  02:40      0.0806       0.888      -0.056
  j_90372              JUNCTION     0.008    0.008     0  02:55      0.0319      0.0319       0.000
  j_90373              JUNCTION     0.015    0.167     0  02:42      0.0565       0.465      -0.022
  j_90374              JUNCTION     0.000    0.058     0  02:42           0      0.0238       0.000
  j_90375              JUNCTION     0.019    0.185     0  02:42      0.0701       0.509      -0.000
  j_90376              JUNCTION     0.003    0.091     0  02:42      0.0116       0.118       0.000
  j_90377              JUNCTION     0.016    0.166     0  02:42      0.0586       0.546      -0.014
  j_90378              JUNCTION     0.017    0.091     0  02:41      0.0645       0.162       0.000
  j_90379              JUNCTION     0.025    0.114     0  02:41      0.0951      0.0965      -0.187
  j_90380              JUNCTION     0.028    0.075     0  02:41       0.108       0.109       0.000
  j_90381              JUNCTION     0.017    0.049     0  02:41       0.065       0.174       0.083
  j_90382              JUNCTION     0.021    0.330     0  02:41       0.078        1.92      -0.005
  j_90383              JUNCTION     0.018    0.270     0  02:41      0.0671        1.67      -0.007
  j_90384              JUNCTION     0.010    0.072     0  02:41      0.0369       0.188       0.055
  j_90385              JUNCTION     0.014    0.086     0  02:41      0.0537       0.151       0.022
  j_90386              JUNCTION     0.025    0.109     0  02:41      0.0959       0.097      -0.134
  j_90387              JUNCTION     0.016    0.030     0  02:40      0.0623      0.0626       0.000
  j_90388              JUNCTION     0.010    0.123     0  02:54      0.0382       0.136       0.161
  j_90389              JUNCTION     0.013    0.180     0  02:40      0.0507        1.04       0.000
  j_90390              JUNCTION     0.007    0.159     0  02:40      0.0276       0.668      -0.008
  j_90391              JUNCTION     0.009    0.092     0  02:51      0.0341       0.356       0.034
  j_90392              JUNCTION     0.019    0.092     0  02:41      0.0722       0.324       0.015
  j_90393              JUNCTION     0.031    0.121     0  02:41       0.118       0.255      -0.024
  j_90394              JUNCTION     0.010    0.136     0  02:41      0.0377       0.111      -0.016
  j_90395              JUNCTION     0.012    0.145     0  02:41      0.0462      0.0716      -0.185
  j_90396              JUNCTION     0.005    0.140     0  02:41      0.0188      0.0226      -0.570
  j_90397              JUNCTION     0.014    0.248     0  02:41      0.0527        1.42      -0.007
  j_90398              JUNCTION     0.016    0.168     0  02:41      0.0594       0.356      -0.046
  j_90399              JUNCTION     0.017    0.094     0  02:40       0.063      0.0896       0.192
  j_90400              JUNCTION     0.011    0.259     0  02:40      0.0399       0.211      -0.033
  j_90401              JUNCTION     0.017    0.267     0  02:41      0.0635       0.256      -0.127
  j_90402              JUNCTION     0.017    0.087     0  02:40      0.0636       0.105       0.000
  j_90403              JUNCTION     0.010    0.187     0  02:40      0.0374       0.191      -0.093
  j_90404              JUNCTION     0.016    0.111     0  02:40      0.0607       0.163       0.057
  j_90405              JUNCTION     0.017    0.105     0  02:41       0.065       0.228      -0.009
  j_90406              JUNCTION     0.016    0.132     0  02:40      0.0602       0.262      -0.061
  j_90407              JUNCTION     0.012    0.118     0  02:40      0.0468       0.196      -0.049
  j_90408              JUNCTION     0.033    0.107     0  02:40       0.125        0.19       0.010
  j_90427              JUNCTION     0.034    0.129     0  02:40        0.13       0.504       0.000
  j_90428              JUNCTION     0.019    0.147     0  02:41      0.0742       0.541       0.003
  j_90430              JUNCTION     0.011    2.091     0  02:54      0.0404        10.5       0.000
  j_90433              JUNCTION     0.005    0.010     0  02:41        0.02      0.0201       0.000
  j_90434              JUNCTION     0.012    0.120     0  02:54      0.0461       0.509       0.069
  j_90435              JUNCTION     0.019    0.138     0  02:54      0.0704       0.579      -0.383
  j_90436              JUNCTION     0.011    0.184     0  02:55      0.0412       0.599       0.000
  j_90437              JUNCTION     0.024    2.080     0  02:54      0.0917        10.5       0.019
  j_90438              JUNCTION     0.019    1.774     0  02:41      0.0722        9.23       0.001
  j_90439              JUNCTION     0.011    0.205     0  02:41      0.0415       0.747       0.000
  j_90440              JUNCTION     0.033    0.178     0  02:41       0.126       0.652      -0.003
  j_90441              JUNCTION     0.015    0.015     0  02:55       0.058       0.058      -0.048
  j_90442              JUNCTION     0.034    0.461     0  02:41       0.133        2.18       0.104
  j_90443              JUNCTION     0.048    1.559     0  02:41       0.185        8.39      -0.014
  j_90444              JUNCTION     0.019    0.510     0  02:51      0.0736        2.74      -0.003
  j_90445              JUNCTION     0.017    0.102     0  02:41      0.0643       0.229       0.030
  j_90446              JUNCTION     0.017    0.128     0  02:41      0.0637       0.164      -0.004
[...]
  c_904831                    1.41      1.41      1.50      0.01         0.01
  c_904851                    1.38      1.38      1.44      0.01         0.01
  c_904861                    1.57      1.57      1.86      1.28         0.01
  c_904862                    1.43      1.43      1.53      0.02         0.03
  c_904871                    1.57      1.57      2.25      0.01         0.01
  c_904881                    2.25      2.25      2.39      0.04         0.04
  c_904882                    1.47      1.49      1.47      1.54         1.47
  c_904891                    1.36      1.36      1.39      0.01         0.01
  c_904901                    1.37      1.37      1.39      0.01         0.01
  c_904921                    2.33      2.33      2.38      1.37         1.34
  c_904922                    1.39      1.39      2.04      0.01         0.01
  c_904931                    1.41      1.41      1.46      0.01         0.01
  c_904951                    2.47      2.47      2.50      0.01         0.02
  c_904952                    2.60      2.60      2.62      1.13         1.09
  c_904961                    1.39      1.39      2.04      0.01         0.01
  c_904971                    1.36      1.36      1.41      0.01         0.01
  c_904981                    1.36      1.36      1.45      0.01         0.01
  c_904982                    1.39      1.39      1.49      0.03         0.04
  c_904991                    1.59      1.60      1.59      2.08         1.55
  c_905001                    1.47      1.47      1.60      0.01         0.01
  c_905011                    1.39      1.39      1.46      0.33         0.32
  c_905021                    1.37      1.37      1.39      0.01         0.01
  c_905031                    1.37      1.37      1.39      0.01         0.01
  c_905041                    1.36      1.36      1.37      0.01         0.01
  c_905042                    1.37      1.37      1.40      0.01         0.01
  c_905051                    2.19      2.19      2.43      0.05         0.06
  c_905061                    2.19      2.19      2.28      1.38         0.01
  c_905071                    1.50      1.50      2.28      0.01         0.01
  c_905072                    1.37      1.37      1.50      0.01         0.01
  c_905081                    1.83      1.83      2.11      0.01         0.01
  c_905091                    1.39      1.39      1.55      0.01         0.01
  c_905101                    1.37      1.37      1.45      0.01         0.01
  c_905111                    1.45      1.45      1.60      0.01         0.01
  c_905121                    2.40      2.40      2.44      0.01         0.01
  c_905131                    1.38      1.38      2.05      0.01         0.01
  c_905141                    1.39      1.39      1.46      0.01         0.01
  c_905151                    1.36      1.36      1.39      0.01         0.01
  c_905152                    1.38      1.38      1.43      0.76         0.77
  c_905161                    1.39      1.45      1.39      2.06         1.39
  c_905171                    1.61      1.61      1.79      0.28         0.29
  c_905172                    1.48      1.48      1.48      1.50         1.48
  c_905181                    1.37      1.37      1.42      0.03         0.03
  c_905182                    1.57      1.57      1.62      1.93         0.01
  c_905191                    1.48      1.48      1.54      0.01         0.01
  c_905192                    1.59      1.59      1.62      0.68         0.67
  c_905201                    1.35      1.35      1.36      0.04         0.05
  c_905211                    1.33      1.33      1.35      0.01         0.01
  c_905221                    1.33      1.33      1.34      0.01         0.01
  c_905231                    1.25      1.25      1.33      0.01         0.01
  c_905241                    2.17      2.17      2.42      0.01         0.03
  c_905251                    1.54      1.54      2.17      0.01         0.01
  c_905261                    1.44      1.44      1.54      0.01         0.01
  c_905271                    1.37      1.37      1.44      0.01         0.01
  c_905501                    0.59      0.65      0.59      0.68         0.57
  c_905521                    0.01      0.13      0.01      2.36         0.01
  c_905541                    1.44      1.44      1.51      0.01         0.01
  c_905551                    1.39      1.39      1.42      0.01         0.01
  c_905561                    1.50      1.50      1.51      0.01         0.01
  c_905571                    1.50      1.50      1.50      2.41         0.13
  c_905572                    1.48      1.48      1.51      0.01         0.01
  c_905581                    1.48      1.48      2.25      0.01         0.01
  c_905591                    1.58      1.58      2.32      0.01         0.01
  c_905601                    2.33      2.33      2.35      0.01         0.04
  c_905602                    1.44      1.44      2.33      0.01         0.01
  c_905611                    1.50      1.50      1.54      0.01         0.01
  c_905621                    1.50      1.50      1.78      0.01         0.01
  c_905622                    1.44      1.44      1.78      0.01         0.01
  c_905631                    1.57      1.57      2.05      0.19         0.19
  c_905632                    2.27      2.27      2.30      2.92         0.01
  c_905641                    1.49      1.49      1.75      0.01         0.01
  c_905651                    1.43      1.43      1.86      0.01         0.01
  c_905661                    1.37      1.37      1.40      0.01         0.01
  c_905681                    0.13      0.36      0.13      1.30         0.13
  c_905682                    0.07      0.07      0.12      0.01         0.01
  c_905691                    1.37      1.37      1.41      0.01         0.01
  c_905701                    1.29      1.29      1.36      0.01         0.01
  c_905711                    1.38      1.38      1.51      0.01         0.01
  c_905721                    2.06      2.06      2.12      1.39         1.38
  c_905722                    1.52      1.52      2.26      0.01         0.01
  c_905731                    1.41      1.41      1.42      1.37         1.32
  c_905732                    1.43      1.43      2.04      0.01         0.01
  c_905741                    2.62      2.62      2.67      0.70         0.69
  c_905751                    2.64      2.64      2.80      0.17         0.17
  c_905752                    2.26      2.26      2.34      1.39         1.38
  c_905761                    1.36      1.36      1.36      1.45         1.35
  c_905771                    1.36      1.36      1.36      1.36         1.34
  c_905781                    2.19      2.19      2.29      0.01         0.02
  c_905791                    1.61      1.61      2.19      0.01         0.01
  c_905811                    1.35      1.35      1.37      0.01         0.01
  c_905821                    1.37      1.37      1.37      2.11         0.01
  c_905831                    1.36      1.36      1.40      0.01         0.01
  c_905841                    1.37      1.37      1.44      0.01         0.01
  c_905851                    2.10      2.10      2.32      1.22         1.21
  c_905852                    1.40      1.40      2.06      0.01         0.01
  c_905861                    2.06      2.19      2.06      3.02         2.06
  c_905862                    1.44      1.44      1.83      0.01         0.01
  c_905871                    2.07      2.07      2.19      1.36         1.35
  c_905881                    1.48      1.48      2.31      0.01         0.01
  c_905891                    1.40      1.40      1.48      0.01         0.01
  c_905892                    1.38      1.38      1.40      0.01         0.01
  c_905901                    1.38      1.38      1.83      0.01         0.01
  c_905902                    1.38      1.38      1.39      0.16         0.17
  c_905921                    2.48      2.48      2.53      0.01         0.01
  c_905931                    2.07      2.10      2.07      2.94         2.06
  c_905941                    1.56      1.56      2.10      0.01         0.01
  c_905942                    2.50      2.50      2.53      1.86         0.01
  c_905951                    1.47      1.47      2.05      0.01         0.01
  c_905961                    1.46      1.46      2.04      0.01         0.01
  c_905971                    1.41      1.41      1.47      0.01         0.01
  c_905981                    1.40      1.40      1.46      0.01         0.01
  c_905982                    1.40      1.40      1.41      0.01         0.01
  c_905991                    1.41      1.41      1.42      0.01         0.01
  c_906001                    1.37      1.37      1.42      0.01         0.01
  c_906011                    1.36      1.36      1.37      0.01         0.01
  c_906031                    1.44      1.44      1.45      0.01         0.03
  c_906041                    1.44      1.44      1.53      0.01         0.01
  c_906051                    1.51      1.51      2.06      0.01         0.01
  c_906052                    1.45      1.45      1.57      0.01         0.03
  c_906061                    1.60      1.60      2.06      0.01         0.04
  c_906071                    1.56      1.56      1.91      0.01         0.01
  c_906081                    1.51      1.51      1.56      0.01         0.01
  c_906082                    1.46      1.46      1.51      0.01         0.01
  c_906091                    1.37      1.37      1.44      0.01         0.01
  c_906101                    1.37      1.37      1.39      0.01         0.01
  c_906111                    1.44      1.44      1.58      0.01         0.01
  c_906112                    1.39      1.39      1.43      0.01         0.01
  c_906121                    1.38      1.38      1.44      0.01         0.01
  c_906131                    1.36      1.36      1.38      0.01         0.01
  c_906132                    1.36      1.36      1.37      0.01         0.01
  c_906151                    0.18      0.18      0.52      0.01         0.01
  c_906161                    0.65      0.70      0.65      1.22         0.65
  c_906171                    0.69      0.71      0.70      0.94         0.66
  c_906181                    0.71      0.71      1.35      0.01         0.01
  c_906191                    0.36      0.65      0.36      1.35         0.36
  c_906192                    1.36      1.36      1.36      1.39         1.35
  c_906201                    1.50      1.50      1.54      2.94         0.01
  c_906202                    1.35      1.35      1.41      0.01         0.01
  c_906211                    1.56      1.56      1.97      1.32         1.30
  c_906231                    1.48      1.48      1.56      1.25         1.24
  c_906241                    2.50      2.50      2.63      0.01         0.01
  c_906261                    2.41      2.41      2.57      0.01         0.01
  c_906271                    2.57      2.57      2.60      0.59         0.61
  c_906272                    1.48      1.49      1.48      1.72         1.47
  c_906281                    1.50      1.50      1.87      0.20         0.21
  c_906291                    1.44      1.44      1.50      0.01         0.01
  c_906301                    1.09      1.10      1.16      0.01         0.01
  c_906321                    1.34      1.34      1.44      0.01         0.01
  c_906322                    1.53      1.54      1.53      2.45         1.51
  c_906331                    1.57      1.57      1.61      0.16         0.17
  c_906341                    1.61      1.61      2.22      0.01         0.01
  c_906342                    1.46      1.46      1.46      1.51         1.42
  c_906351                    2.32      2.32      2.41      0.01         0.01
  c_906352                    2.41      2.41      2.43      0.08         0.10
  c_906361                    2.05      2.05      2.38      0.01         0.01
  c_906371                    1.37      1.37      1.53      0.01         0.01
  c_906381                    1.63      1.63      2.06      0.08         0.09
  c_906391                    1.51      1.51      1.67      0.01         0.01
  c_906401                    1.36      1.36      1.40      0.01         0.01
  c_906402                    1.40      1.40      1.46      0.01         0.01
  c_906411                    1.51      1.51      1.61      0.01         0.01
  c_906421                    1.37      1.37      1.51      0.01         0.01
  c_906431                    1.37      1.37      1.37      0.01         0.01
  c_906441                    0.94      0.94      1.14      0.01         0.01
  c_906461                    1.33      1.33      1.38      0.01         0.01
  c_906471                    1.33      1.33      1.35      0.01         0.01
  c_906481                    1.41      1.41      1.52      0.01         0.01
  c_906491                    1.34      1.34      1.39      0.01         0.01
  c_906492                    1.36      1.36      1.37      0.19         0.20
  c_906501                    1.35      1.35      1.51      0.01         0.01
  c_906511                    1.56      1.56      2.16      0.01         0.01
  c_906521                    1.53      1.53      1.56      0.01         0.02
  c_906531                    1.35      1.35      1.53      0.01         0.01
  c_906541                    1.44      1.44      1.50      0.01         0.01
  c_906561                    1.46      1.46      1.50      2.22         0.01
  c_906562                    1.36      1.36      1.37      1.33         1.29
  c_906563                    1.51      1.51      1.99      0.02         0.03
  c_906581                    0.65      0.65      0.72      0.01         0.01
  c_906591                    1.02      1.02      1.12      0.07         0.09
  c_906592                    0.72      0.72      1.02      0.01         0.01
  c_906621                    0.33      0.33      0.53      0.01         0.01
  c_906622                    0.33      0.34      0.33      0.58         0.32
  c_906631                    1.58      1.59      1.58      2.24         1.37
  c_906641                    1.39      1.39      1.39      0.01         0.52
  c_906651                    2.75      2.75      2.75      0.77         0.80
  c_906701                    1.47      1.47      1.51      0.01         0.01
  c_906731                    2.50      2.50      2.50      2.25         2.05
  c_906741                    1.50      1.51      1.50      2.56         1.48
  c_906742                    1.39      1.39      1.43      0.01         0.01
  c_906751                    1.41      1.41      1.42      0.59         0.55
  c_906761                    1.45      1.45      1.49      0.70         0.01
  c_906771                    1.49      1.49      1.55      0.01         0.01
  c_906772                    1.53      1.53      1.55      0.11         0.14
  c_906781                    1.52      1.52      2.46      0.01         0.01
  c_906791                    1.42      1.42      1.52      0.01         0.01
  c_906801                    1.33      1.33      1.35      0.01         0.01
  c_906811                    1.37      1.37      1.40      0.30         0.31
  c_906821                    1.37      1.37      2.43      0.01         0.01
  c_906831                    1.33      1.33      1.33      0.01         0.02
  c_906832                    1.35      1.35      1.40      0.01         0.01
  c_906841                    2.41      2.41      2.42      0.01         0.01
  c_906851                    1.33      1.33      1.37      0.01         0.01
  c_906861                    1.43      1.43      1.48      0.01         0.01
  c_906862                    1.40      1.40      1.43      0.01         0.01
  c_906891                    0.25      0.25      0.25      0.21         0.21
  c_906901                    0.24      0.24      0.25      0.10         0.10
  c_906911                    0.10      0.11      0.11      0.17         0.10
  c_906921                    0.10      0.10      0.11      0.05         0.02
  c_906931                    0.09      0.09      0.10      0.01         0.01
  c_906932                    0.44      0.44      0.65      0.07         0.01
  c_906941                    0.23      0.23      0.44      0.01         0.01
  c_906951                    0.04      0.04      0.06      0.01         0.01
  c_906961                    0.25      0.25      0.30      0.01         0.01
  c_906971                    0.30      0.30      0.40      0.01         0.01
  c_906981                    0.38      0.40      0.38      0.34         0.16
  c_906991                    0.30      0.38      0.30      0.60         0.22
  c_906992                    0.26      0.30      0.27      0.69         0.21
  c_907001                    0.04      0.04      0.06      0.01         0.01
  c_907011                    0.04      0.04      0.05      0.01         0.01
  c_907021                    0.03      0.03      0.04      0.01         0.01
  c_907031                    1.82      1.82      2.05      0.01         0.01
  c_907032                    1.54      1.54      2.33      0.01         0.01
  c_907033                    2.05      2.05      2.27      0.01         0.01
  c_907041                    1.38      1.38      1.39      0.01         0.01
  c_907042                    1.38      1.38      1.38      0.51         0.01
  c_907051                    1.39      1.39      1.51      0.01         0.01
  c_907061                    2.41      2.41      2.47      0.01         0.01
  c_907062                    2.41      2.41      2.48      0.01         0.01
  c_907071                    1.89      1.89      2.03      0.39         0.44
  c_907081                    1.42      1.42      1.59      0.01         0.01
  c_907091                    1.52      1.52      2.40      0.01         0.01
  c_907101                    1.38      1.38      1.52      0.01         0.01
  c_907241                    1.51      1.51      1.53      0.01         0.01
  c_907242                    1.53      1.53      1.53      0.45         0.61
  c_907251                    1.39      1.39      1.66      0.01         0.01
  c_907261                    1.35      1.35      1.39      0.01         0.01
  c_907271                    1.33      1.33      1.35      0.01         0.01
  c_907281                    1.32      1.32      1.35      0.01         0.01
  c_907291                    1.31      1.31      1.35      0.01         0.01
  c_907301                    1.35      1.35      1.48      0.01         0.01
  c_907311                    1.33      1.33      1.48      0.01         0.01
  c_907321                    1.32      1.32      1.33      0.01         0.01
  c_907331                    1.48      1.48      1.59      0.01         0.01
  c_907332                    1.59      1.59      1.65      0.01         0.01
  c_912721                    1.25      1.25      1.26      0.15         0.03
  c_912731                    0.60      0.60      1.16      0.01         0.01
  c_912741                    1.21      1.21      1.25      0.13         0.02
  c_912751                    0.58      0.58      0.96      0.01         0.01
  c_912761                    1.16      1.16      1.21      0.08         0.01
  c_912771                    0.54      0.54      0.84      0.01         0.01
  c_912781                    0.88      0.88      1.16      0.01         0.01
  c_912791                    0.53      0.53      0.80      0.01         0.01
  c_912931                    1.26      1.26      1.47      0.01         0.01
  c_912932                    1.47      1.47      1.48      0.03         0.01
  c_912941                    0.41      0.41      0.69      0.01         0.01
  

  Analysis begun on:  Sun Jun 12 01:34:11 2022
  Analysis ended on:  Sun Jun 12 01:34:31 2022
  Total elapsed time: 00:00:20