
  EPA STORM WATER MANAGEMENT MODEL - VERSION 5.1 (Build 5.1.015)
  --------------------------------------------------------------

  WARNING 04: minimum elevation drop used for Conduit c_903642
  WARNING 04: minimum elevation drop used for Conduit c_903651
  WARNING 04: minimum elevation drop used for Conduit c_903672
  WARNING 04: minimum elevation drop used for Conduit c_905571
  WARNING 04: minimum elevation drop used for Conduit c_905632
  WARNING 04: minimum elevation drop used for Conduit c_905821
  WARNING 04: minimum elevation drop used for Conduit c_905861
  WARNING 04: minimum elevation drop used for Conduit c_905931
  WARNING 04: minimum elevation drop used for Conduit c_906201
  WARNING 04: minimum elevation drop used for Conduit c_906322
  WARNING 04: minimum elevation drop used for Conduit c_906631
  WARNING 04: minimum elevation drop used for Conduit c_906641
  WARNING 04: minimum elevation drop used for Conduit c_906651
  WARNING 04: minimum elevation drop used for Conduit c_906731
  WARNING 04: minimum elevation drop used for Conduit c_906741
  WARNING 04: minimum elevation drop used for Conduit c_907242
  
  *********************
  Rainfall File Summary
  *********************
  Station    First        Last         Recording   Periods    Periods    Periods
  ID         Date         Date         Frequency  w/Precip    Missing    Malfunc.
  -------------------------------------------------------------------------------
  R1         01/17/2014   01/18/2014       5 min       131          0          0
  R1         01/17/2014   01/18/2014       5 min       131          0          0
  R1         01/17/2014   01/18/2014       5 min       131          0          0

  
  *********************************************************
  NOTE: The summary statistics displayed in this report are
  based on results found at every computational time step,  
  not just on results from each reporting time step.
  *********************************************************
  
  ****************
  Analysis Options
  ****************
  Flow Units ............... CMS
  Process Models:
    Rainfall/Runoff ........ YES
    RDII ................... NO
    Snowmelt ............... NO
    Groundwater ............ NO
    Flow Routing ........... YES
    Ponding Allowed ........ NO
    Water Quality .......... NO
  Infiltration Method ...... HORTON
  Flow Routing Method ...... DYNWAVE
  Surcharge Method ......... EXTRAN
  Starting Date ............ 01/17/2014 00:00:00
  Ending Date .............. 01/18/2014 03:25:00
  Antecedent Dry Days ...... 0.0
  Report Time Step ......... 00:05:00
  Wet Time Step ............ 00:01:00
  Dry Time Step ............ 00:10:00
  Routing Time Step ........ 1.00 sec
  Variable Time Step ....... YES
  Maximum Trials ........... 12
  Number of Threads ........ 2
  Head Tolerance ........... 0.000200 m
  
  
  **************************        Volume         Depth
  Runoff Quantity Continuity     hectare-m            mm
  **************************     ---------       -------
  Total Precipitation ......         0.735        26.500
  Evaporation Loss .........         0.012         0.448
  Infiltration Loss ........         0.018         0.656
  Surface Runoff ...........         0.608        21.924
  Final Storage ............         0.100         3.586
  Continuity Error (%) .....        -0.431
  
  
  **************************        Volume        Volume
  Flow Routing Continuity        hectare-m      10^6 ltr
  **************************     ---------     ---------
  Dry Weather Inflow .......         0.000         0.000
  Wet Weather Inflow .......         0.608         6.084
  Groundwater Inflow .......         0.000         0.000
  RDII Inflow ..............         0.000         0.000
  External Inflow ..........         0.000         0.000
  External Outflow .........         0.609         6.086
  Flooding Loss ............         0.000         0.000
  Evaporation Loss .........         0.000         0.000
  Exfiltration Loss ........         0.000         0.000
  Initial Stored Volume ....         0.000         0.000
  Final Stored Volume ......         0.001         0.006
  Continuity Error (%) .....        -0.128
  
  
  *************************
  Highest Continuity Errors
  *************************
  Node j_90368 (3.69%)
  Node j_90434 (1.19%)
  
  
  ***************************
  Time-Step Critical Elements
  ***************************
  Link c_904312 (10.87%)
  
  
  ********************************
  Highest Flow Instability Indexes
  ********************************
  All links are stable.
  
  
  *************************
  Routing Time Step Summary
  *************************
  Minimum Time Step           :     0.50 sec
  Average Time Step           :     0.99 sec
  Maximum Time Step           :     1.00 sec
  Percent in Steady State     :     0.30
  Average Iterations per Step :     2.00
  Percent Not Converging      :     0.00
  Time Step Frequencies       :
      1.000 -  0.871 sec      :    95.37 %
      0.871 -  0.758 sec      :     3.09 %
      0.758 -  0.660 sec      :     1.50 %
      0.660 -  0.574 sec      :     0.01 %
      0.574 -  0.500 sec      :     0.03 %
  
  
  ***************************
  Subcatchment Runoff Summary
  ***************************
  
  ------------------------------------------------------------------------------------------------------------------------------
                            Total      Total      Total      Total     Imperv       Perv      Total       Total     Peak  Runoff
                           Precip      Runon       Evap      Infil     Runoff     Runoff     Runoff      Runoff   Runoff   Coeff
  Subcatchment                 mm         mm         mm         mm         mm         mm         mm    10^6 ltr      CMS
  ------------------------------------------------------------------------------------------------------------------------------
  sub_9006F                 26.50       0.00       0.45       0.54      13.56       8.10      21.65        0.01     0.00   0.817
  sub_90334                 26.50       0.00       0.44       1.44       2.45      21.36      23.81        0.03     0.00   0.899
  sub_90335                 26.50       0.00       0.45       0.33      16.23       4.91      21.13        0.04     0.01   0.798
  sub_90336                 26.50       0.00       0.45       1.11       6.56      16.46      23.02        0.01     0.00   0.868
  sub_90363                 26.50       0.00       0.45       0.33      16.19       4.95      21.14        0.05     0.01   0.798
  sub_90364                 26.50       0.00       0.44       1.22       5.18      18.11      23.28        0.01     0.00   0.879
  sub_90365                 26.50       0.00       0.44       1.63       0.00      24.29      24.29        0.00     0.00   0.917
  sub_90366                 26.50       0.00       0.45       0.55      13.46       8.21      21.67        0.02     0.00   0.818
  sub_90367                 26.50       0.00       0.45       0.93       8.76      13.83      22.59        0.01     0.00   0.852
  sub_90369                 26.50       0.00       0.45       0.67      12.05       9.90      21.95        0.04     0.01   0.828
  sub_90370                 26.50       0.00       0.45       0.45      14.76       6.66      21.42        0.02     0.00   0.808
  sub_90371                 26.50       0.00       0.45       0.23      17.43       3.47      20.90        0.02     0.00   0.789
  sub_90372                 26.50       0.00       0.45       1.03       7.49      15.34      22.83        0.01     0.00   0.862
  sub_90373                 26.50       0.00       0.45       0.07      19.45       1.06      20.51        0.01     0.00   0.774
  sub_90375                 26.50       0.00       0.45       0.33      16.27       4.86      21.13        0.02     0.00   0.797
  sub_90376                 26.50       0.00       0.45       0.58      13.07       8.68      21.75        0.00     0.00   0.821
  sub_90377                 26.50       0.00       0.45       0.35      16.04       5.13      21.17        0.02     0.00   0.799
  sub_90378                 26.50       0.00       0.45       0.46      14.60       6.85      21.45        0.02     0.00   0.809
  sub_90379                 26.50       0.00       0.45       0.77      10.70      11.51      22.21        0.03     0.00   0.838
  sub_90380                 26.50       0.00       0.45       0.70      11.58      10.46      22.04        0.03     0.00   0.832
  sub_90381                 26.50       0.00       0.45       0.71      11.47      10.59      22.06        0.02     0.00   0.832
  sub_90382                 26.50       0.00       0.45       0.59      12.98       8.79      21.77        0.02     0.00   0.821
  sub_90383                 26.50       0.00       0.45       0.50      14.06       7.50      21.56        0.02     0.00   0.813
  sub_90384                 26.50       0.00       0.45       0.97       8.32      14.35      22.67        0.01     0.00   0.856
  sub_90385                 26.50       0.00       0.45       0.43      15.02       6.35      21.37        0.01     0.00   0.806
  sub_90386                 26.50       0.00       0.45       0.78      10.61      11.62      22.23        0.03     0.00   0.839
  sub_90387                 26.50       0.00       0.45       0.61      12.74       9.07      21.81        0.02     0.00   0.823
  sub_90388                 26.50       0.00       0.45       0.60      12.82       8.98      21.80        0.01     0.00   0.823
  sub_90389                 26.50       0.00       0.45       0.67      12.00       9.96      21.96        0.01     0.00   0.829
  sub_90390                 26.50       0.00       0.45       0.84       9.86      12.51      22.37        0.01     0.00   0.844
  sub_90391                 26.50       0.00       0.44       1.63       0.00      24.29      24.29        0.01     0.00   0.917
  sub_90392                 26.50       0.00       0.45       1.05       7.33      15.54      22.87        0.02     0.00   0.863
  sub_90393                 26.50       0.00       0.45       1.03       7.50      15.33      22.83        0.03     0.00   0.862
  sub_90394                 26.50       0.00       0.45       0.98       8.13      14.57      22.71        0.01     0.00   0.857
  sub_90395                 26.50       0.00       0.45       0.38      15.61       5.64      21.25        0.01     0.00   0.802
  sub_90396                 26.50       0.00       0.45       0.00      20.33       0.00      20.33        0.00     0.00   0.767
  sub_90397                 26.50       0.00       0.45       0.88       9.36      13.11      22.47        0.01     0.00   0.848
  sub_90398                 26.50       0.00       0.45       0.92       8.88      13.69      22.56        0.02     0.00   0.851
  sub_90399                 26.50       0.00       0.45       0.52      13.91       7.67      21.58        0.02     0.00   0.815
  sub_90400                 26.50       0.00       0.45       0.61      12.71       9.11      21.82        0.01     0.00   0.823
  sub_90401                 26.50       0.00       0.45       0.36      15.85       5.36      21.21        0.02     0.00   0.800
  sub_90402                 26.50       0.00       0.45       0.38      15.58       5.68      21.26        0.02     0.00   0.802
  sub_90403                 26.50       0.00       0.45       0.62      12.65       9.18      21.83        0.01     0.00   0.824
  sub_90404                 26.50       0.00       0.45       0.65      12.26       9.65      21.91        0.02     0.00   0.827
  sub_90405                 26.50       0.00       0.45       0.71      11.47      10.59      22.06        0.02     0.00   0.832
  sub_90406                 26.50       0.00       0.45       0.86       9.60      12.82      22.42        0.02     0.00   0.846
  sub_90407                 26.50       0.00       0.45       0.85       9.80      12.58      22.38        0.01     0.00   0.845
  sub_90408                 26.50       0.00       0.45       0.54      13.60       8.04      21.64        0.03     0.01   0.817
  sub_90427                 26.50       0.00       0.45       0.64      12.43       9.44      21.87        0.03     0.01   0.825
  sub_90428                 26.50       0.00       0.45       0.77      10.74      11.46      22.20        0.02     0.00   0.838
  sub_90430                 26.50       0.00       0.45       0.37      15.77       5.45      21.22        0.01     0.00   0.801
  sub_90431                 26.50       0.00       0.45       0.59      12.97       8.80      21.77        0.02     0.00   0.821
  sub_90433                 26.50       0.00       0.45       0.82      10.17      12.15      22.31        0.01     0.00   0.842
  sub_90434                 26.50       0.00       0.45       0.29      16.70       4.34      21.04        0.01     0.00   0.794
  sub_90435                 26.50       0.00       0.45       0.52      13.88       7.72      21.59        0.02     0.00   0.815
  sub_90436                 26.50       0.00       0.45       0.26      17.08       3.89      20.97        0.01     0.00   0.791
  sub_90437                 26.50       0.00       0.45       0.41      15.21       6.13      21.33        0.02     0.00   0.805
  sub_90438                 26.50       0.00       0.45       0.58      13.09       8.66      21.74        0.02     0.00   0.821
  sub_90439                 26.50       0.00       0.45       0.59      13.01       8.74      21.76        0.01     0.00   0.821
  sub_90440                 26.50       0.00       0.45       0.67      12.04       9.91      21.95        0.03     0.01   0.828
  sub_90441                 26.50       0.00       0.45       1.09       6.78      16.19      22.97        0.02     0.00   0.867
  sub_90442                 26.50       0.00       0.44       1.28       4.40      19.03      23.43        0.04     0.01   0.884
  sub_90443                 26.50       0.00       0.45       0.95       8.47      14.18      22.64        0.05     0.01   0.855
  sub_90444                 26.50       0.00       0.45       0.46      14.62       6.82      21.45        0.02     0.00   0.809
  sub_90445                 26.50       0.00       0.45       0.81      10.30      11.99      22.29        0.02     0.00   0.841
  sub_90446                 26.50       0.00       0.45       0.49      14.26       7.26      21.52        0.02     0.00   0.812
  sub_90447                 26.50       0.00       0.45       0.76      10.88      11.29      22.17        0.03     0.00   0.837
  sub_90448                 26.50       0.00       0.45       0.71      11.55      10.49      22.04        0.03     0.00   0.832
  sub_90449                 26.50       0.00       0.45       0.67      12.05       9.90      21.95        0.01     0.00   0.828
  sub_90450                 26.50       0.00       0.45       0.56      13.32       8.38      21.70        0.01     0.00   0.819
  sub_90451                 26.50       0.00       0.45       0.72      11.42      10.64      22.07        0.02     0.00   0.833
  sub_90452                 26.50       0.00       0.45       0.92       8.90      13.66      22.56        0.01     0.00   0.851
  sub_90453                 26.50       0.00       0.45       0.47      14.45       7.02      21.48        0.02     0.00   0.811
  sub_90454                 26.50       0.00       0.45       0.64      12.41       9.46      21.88        0.02     0.00   0.826
  sub_90455                 26.50       0.00       0.45       0.35      15.98       5.21      21.18        0.02     0.00   0.799
  sub_90456                 26.50       0.00       0.45       0.95       8.54      14.09      22.63        0.03     0.01   0.854
  sub_90457                 26.50       0.00       0.45       0.93       8.73      13.86      22.59        0.04     0.01   0.853
  sub_90459                 26.50       0.00       0.45       1.13       6.26      16.82      23.07        0.04     0.01   0.871
  sub_90460                 26.50       0.00       0.44       1.52       1.47      22.54      24.01        0.02     0.00   0.906
  sub_90461                 26.50       0.00       0.45       0.54      13.56       8.10      21.65        0.01     0.00   0.817
  sub_90462                 26.50       0.00       0.45       0.77      10.78      11.41      22.19        0.02     0.00   0.838
  sub_90463                 26.50       0.00       0.45       0.39      15.43       5.86      21.29        0.02     0.00   0.803
  sub_90464                 26.50       0.00       0.45       0.66      12.16       9.76      21.93        0.02     0.00   0.827
  sub_90465                 26.50       0.00       0.45       0.35      15.98       5.21      21.18        0.02     0.00   0.799
  sub_90466                 26.50       0.00       0.45       0.61      12.71       9.11      21.82        0.02     0.00   0.823
  sub_90467                 26.50       0.00       0.45       0.30      16.60       4.46      21.06        0.03     0.01   0.795
  sub_90468                 26.50       0.00       0.45       0.58      13.11       8.63      21.74        0.03     0.00   0.820
  sub_90469                 26.50       0.00       0.45       0.35      15.98       5.21      21.18        0.02     0.00   0.799
  sub_90470                 26.50       0.00       0.45       0.60      12.85       8.94      21.79        0.02     0.00   0.822
  sub_90471                 26.50       0.00       0.45       0.50      14.14       7.40      21.54        0.02     0.00   0.813
  sub_90477                 26.50       0.00       0.45       0.34      16.10       5.06      21.16        0.03     0.01   0.798
  sub_90478                 26.50       0.00       0.45       0.39      15.43       5.86      21.29        0.02     0.00   0.803
  sub_90479                 26.50       0.00       0.45       0.94       8.68      13.93      22.60        0.02     0.00   0.853
  sub_90480                 26.50       0.00       0.45       0.46      14.60       6.86      21.45        0.03     0.00   0.809
  sub_90481                 26.50       0.00       0.45       0.58      13.06       8.69      21.75        0.02     0.00   0.821
  sub_90482                 26.50       0.00       0.45       0.61      12.75       9.06      21.81        0.01     0.00   0.823
  sub_90483                 26.50       0.00       0.44       1.23       5.08      18.22      23.30        0.02     0.00   0.879
  sub_90484                 26.50       0.00       0.45       0.51      13.98       7.59      21.57        0.02     0.00   0.814
  sub_90485                 26.50       0.00       0.45       0.92       8.88      13.69      22.56        0.03     0.01   0.851
  sub_90486                 26.50       0.00       0.45       0.68      11.84      10.15      21.99        0.03     0.00   0.830
  sub_90487                 26.50       0.00       0.45       0.58      13.06       8.69      21.75        0.04     0.01   0.821
  sub_90488                 26.50       0.00       0.45       0.71      11.45      10.62      22.06        0.03     0.00   0.833
  sub_90489                 26.50       0.00       0.45       0.36      15.84       5.37      21.21        0.02     0.00   0.800
  sub_90490                 26.50       0.00       0.45       0.32      16.31       4.80      21.12        0.02     0.00   0.797
  sub_90491                 26.50       0.00       0.45       0.38      15.60       5.66      21.26        0.02     0.00   0.802
  sub_90492                 26.50       0.00       0.45       0.51      13.96       7.62      21.58        0.03     0.00   0.814
  sub_90493                 26.50       0.00       0.45       0.35      15.99       5.19      21.18        0.02     0.00   0.799
  sub_90494                 26.50       0.00       0.45       0.33      16.18       4.96      21.14        0.02     0.00   0.798
  sub_90495                 26.50       0.00       0.45       0.52      13.83       7.77      21.60        0.02     0.00   0.815
  sub_90496                 26.50       0.00       0.45       0.35      15.99       5.19      21.18        0.02     0.00   0.799
  sub_90497                 26.50       0.00       0.45       0.31      16.44       4.65      21.09        0.02     0.00   0.796
  sub_90498                 26.50       0.00       0.45       0.59      13.01       8.75      21.76        0.04     0.01   0.821
  sub_90499                 26.50       0.00       0.45       1.03       7.57      15.25      22.82        0.03     0.00   0.861
  sub_90500                 26.50       0.00       0.45       0.75      10.97      11.18      22.16        0.03     0.00   0.836
  sub_90501                 26.50       0.00       0.45       0.33      16.23       4.91      21.13        0.02     0.00   0.798
  sub_90502                 26.50       0.00       0.45       0.65      12.28       9.62      21.90        0.02     0.00   0.826
  sub_90503                 26.50       0.00       0.45       0.36      15.82       5.40      21.21        0.02     0.00   0.801
  sub_90504                 26.50       0.00       0.45       0.34      16.14       5.02      21.15        0.02     0.00   0.798
  sub_90505                 26.50       0.00       0.45       0.40      15.41       5.88      21.29        0.02     0.00   0.803
  sub_90506                 26.50       0.00       0.45       0.43      14.96       6.42      21.38        0.02     0.00   0.807
  sub_90507                 26.50       0.00       0.45       0.45      14.71       6.72      21.43        0.02     0.00   0.809
  sub_90508                 26.50       0.00       0.45       0.44      14.88       6.52      21.40        0.02     0.00   0.807
  sub_90509                 26.50       0.00       0.45       0.91       9.07      13.46      22.53        0.02     0.00   0.850
  sub_90510                 26.50       0.00       0.45       0.41      15.25       6.07      21.32        0.02     0.00   0.805
  sub_90511                 26.50       0.00       0.45       0.70      11.62      10.41      22.03        0.01     0.00   0.831
  sub_90512                 26.50       0.00       0.45       0.46      14.55       6.91      21.46        0.02     0.00   0.810
  sub_90513                 26.50       0.00       0.45       0.32      16.38       4.73      21.10        0.04     0.01   0.796
  sub_90514                 26.50       0.00       0.45       0.42      15.08       6.28      21.36        0.02     0.00   0.806
  sub_90515                 26.50       0.00       0.45       0.74      11.11      11.02      22.13        0.02     0.00   0.835
  sub_90516                 26.50       0.00       0.45       1.04       7.45      15.40      22.84        0.02     0.00   0.862
  sub_90517                 26.50       0.00       0.45       0.75      11.01      11.13      22.15        0.02     0.00   0.836
  sub_90518                 26.50       0.00       0.45       0.22      17.54       3.33      20.88        0.01     0.00   0.788
  sub_90519                 26.50       0.00       0.45       0.83       9.97      12.38      22.35        0.05     0.01   0.843
  sub_90520                 26.50       0.00       0.45       0.81      10.25      12.05      22.30        0.03     0.00   0.841
  sub_90521                 26.50       0.00       0.45       0.48      14.39       7.10      21.49        0.01     0.00   0.811
  sub_90522                 26.50       0.00       0.45       0.38      15.58       5.69      21.26        0.01     0.00   0.802
  sub_90523                 26.50       0.00       0.45       0.47      14.43       7.05      21.48        0.03     0.00   0.811
  sub_90524                 26.50       0.00       0.45       0.80      10.41      11.86      22.27        0.04     0.01   0.840
  sub_90525                 26.50       0.00       0.45       1.00       7.83      14.93      22.77        0.06     0.01   0.859
  sub_90526                 26.50       0.00       0.45       0.81      10.30      11.99      22.29        0.02     0.00   0.841
  sub_90527                 26.50       0.00       0.45       1.04       7.37      15.48      22.86        0.02     0.00   0.863
  sub_90549                 26.50       0.00       0.45       0.76      10.93      11.24      22.17        0.01     0.00   0.836
  sub_90550                 26.50       0.00       0.45       0.00      20.33       0.00      20.33        0.01     0.00   0.767
  sub_90551                 26.50       0.00       0.45       0.88       9.33      13.14      22.48        0.01     0.00   0.848
  sub_90552                 26.50       0.00       0.45       0.36      15.83       5.38      21.21        0.06     0.01   0.800
  sub_90553                 26.50       0.00       0.45       0.85       9.79      12.60      22.39        0.01     0.00   0.845
  sub_90554                 26.50       0.00       0.45       0.81      10.30      11.99      22.29        0.02     0.00   0.841
  sub_90555                 26.50       0.00       0.45       0.98       8.08      14.63      22.72        0.02     0.00   0.857
  sub_90556                 26.50       0.00       0.45       1.08       6.91      16.03      22.95        0.03     0.01   0.866
  sub_90557                 26.50       0.00       0.45       0.56      13.42       8.25      21.68        0.02     0.00   0.818
  sub_90558                 26.50       0.00       0.45       0.56      13.36       8.34      21.69        0.04     0.01   0.819
  sub_90559                 26.50       0.00       0.45       0.88       9.39      13.08      22.47        0.02     0.00   0.848
  sub_90560                 26.50       0.00       0.45       0.73      11.30      10.80      22.09        0.04     0.01   0.834
  sub_90561                 26.50       0.00       0.45       0.65      12.30       9.60      21.90        0.03     0.00   0.826
  sub_90562                 26.50       0.00       0.45       0.60      12.90       8.89      21.78        0.03     0.00   0.822
  sub_90563                 26.50       0.00       0.45       0.56      13.31       8.39      21.70        0.02     0.00   0.819
  sub_90564                 26.50       0.00       0.45       0.49      14.26       7.26      21.52        0.02     0.00   0.812
  sub_90565                 26.50       0.00       0.45       0.70      11.68      10.34      22.02        0.02     0.00   0.831
  sub_90566                 26.50       0.00       0.45       0.71      11.45      10.61      22.06        0.02     0.00   0.833
  sub_90567                 26.50       0.00       0.45       0.85       9.76      12.63      22.39        0.02     0.00   0.845
  sub_90568                 26.50       0.00       0.45       0.00      20.33       0.00      20.33        0.01     0.00   0.767
  sub_90569                 26.50       0.00       0.45       0.78      10.60      11.63      22.23        0.02     0.00   0.839
  sub_90570                 26.50       0.00       0.45       0.93       8.71      13.88      22.60        0.01     0.00   0.853
  sub_90571                 26.50       0.00       0.45       0.50      14.10       7.45      21.55        0.02     0.00   0.813
  sub_90572                 26.50       0.00       0.45       0.50      14.14       7.40      21.54        0.02     0.00   0.813
  sub_90573                 26.50       0.00       0.45       0.33      16.18       4.96      21.14        0.02     0.00   0.798
  sub_90574                 26.50       0.00       0.45       0.38      15.62       5.63      21.25        0.02     0.00   0.802
  sub_90575                 26.50       0.00       0.45       0.62      12.62       9.21      21.84        0.03     0.00   0.824
  sub_90576                 26.50       0.00       0.45       0.67      11.95      10.01      21.97        0.03     0.00   0.829
  sub_90577                 26.50       0.00       0.45       0.65      12.20       9.72      21.92        0.02     0.00   0.827
  sub_90578                 26.50       0.00       0.45       0.57      13.24       8.47      21.72        0.03     0.00   0.819
  sub_90579                 26.50       0.00       0.45       0.48      14.40       7.09      21.49        0.02     0.00   0.811
  sub_90580                 26.50       0.00       0.45       0.99       8.00      14.73      22.73        0.02     0.00   0.858
  sub_90581                 26.50       0.00       0.45       0.80      10.39      11.88      22.27        0.02     0.00   0.840
  sub_90582                 26.50       0.00       0.45       0.63      12.53       9.32      21.85        0.02     0.00   0.825
  sub_90583                 26.50       0.00       0.45       0.78      10.58      11.65      22.23        0.02     0.00   0.839
  sub_90584                 26.50       0.00       0.45       0.44      14.87       6.53      21.40        0.02     0.00   0.807
  sub_90585                 26.50       0.00       0.45       0.44      14.89       6.51      21.39        0.02     0.00   0.807
  sub_90586                 26.50       0.00       0.45       0.48      14.34       7.16      21.50        0.02     0.00   0.811
  sub_90587                 26.50       0.00       0.45       0.53      13.73       7.89      21.62        0.02     0.00   0.816
  sub_90588                 26.50       0.00       0.45       0.37      15.79       5.43      21.22        0.02     0.00   0.801
  sub_90589                 26.50       0.00       0.45       0.60      12.90       8.88      21.78        0.02     0.00   0.822
  sub_90590                 26.50       0.00       0.45       0.58      13.18       8.55      21.73        0.03     0.00   0.820
  sub_90591                 26.50       0.00       0.45       0.39      15.46       5.82      21.28        0.02     0.00   0.803
  sub_90592                 26.50       0.00       0.45       0.38      15.61       5.64      21.25        0.02     0.00   0.802
  sub_90593                 26.50       0.00       0.45       0.51      13.94       7.64      21.58        0.02     0.00   0.814
  sub_90594                 26.50       0.00       0.45       0.63      12.44       9.43      21.87        0.03     0.00   0.825
  sub_90595                 26.50       0.00       0.45       0.64      12.37       9.52      21.88        0.02     0.00   0.826
  sub_90596                 26.50       0.00       0.45       0.36      15.82       5.40      21.21        0.02     0.00   0.801
  sub_90597                 26.50       0.00       0.45       0.85       9.74      12.66      22.40        0.02     0.00   0.845
  sub_90598                 26.50       0.00       0.45       0.85       9.82      12.56      22.38        0.01     0.00   0.845
  sub_90599                 26.50       0.00       0.45       0.62      12.61       9.23      21.84        0.01     0.00   0.824
  sub_90600                 26.50       0.00       0.45       0.56      13.31       8.39      21.70        0.01     0.00   0.819
  sub_90601                 26.50       0.00       0.45       0.94       8.61      14.00      22.62        0.02     0.00   0.853
  sub_90602                 26.50       0.00       0.45       0.70      11.62      10.41      22.03        0.02     0.00   0.831
  sub_90603                 26.50       0.00       0.45       0.89       9.27      13.22      22.49        0.02     0.00   0.849
  sub_90604                 26.50       0.00       0.45       0.59      12.94       8.83      21.77        0.02     0.00   0.822
  sub_90605                 26.50       0.00       0.45       0.59      13.05       8.70      21.75        0.04     0.01   0.821
  sub_90606                 26.50       0.00       0.45       0.66      12.15       9.77      21.93        0.02     0.00   0.827
  sub_90607                 26.50       0.00       0.45       0.68      11.84      10.15      21.99        0.01     0.00   0.830
  sub_90608                 26.50       0.00       0.45       0.82      10.17      12.15      22.31        0.02     0.00   0.842
  sub_90609                 26.50       0.00       0.45       0.96       8.39      14.27      22.66        0.01     0.00   0.855
  sub_90610                 26.50       0.00       0.45       0.93       8.76      13.83      22.59        0.02     0.00   0.852
  sub_90611                 26.50       0.00       0.45       0.83       9.98      12.37      22.35        0.01     0.00   0.843
  sub_90612                 26.50       0.00       0.45       0.94       8.64      13.97      22.61        0.02     0.00   0.853
  sub_90613                 26.50       0.00       0.45       1.00       7.87      14.89      22.76        0.03     0.00   0.859
  sub_90615                 26.50       0.00       0.45       0.85       9.73      12.67      22.40        0.04     0.01   0.845
  sub_90616                 26.50       0.00       0.45       0.44      14.90       6.49      21.39        0.03     0.01   0.807
  sub_90617                 26.50       0.00       0.45       0.57      13.30       8.40      21.70        0.03     0.00   0.819
  sub_90618                 26.50       0.00       0.45       0.36      15.80       5.41      21.22        0.04     0.01   0.801
  sub_90619                 26.50       0.00       0.45       0.06      19.61       0.87      20.48        0.01     0.00   0.773
  sub_90620                 26.50       0.00       0.45       0.38      15.57       5.69      21.26        0.01     0.00   0.802
  sub_90621                 26.50       0.00       0.45       0.81      10.26      12.03      22.29        0.05     0.01   0.841
  sub_90623                 26.50       0.00       0.45       0.69      11.71      10.30      22.01        0.04     0.01   0.831
  sub_90624                 26.50       0.00       0.45       0.67      12.02       9.94      21.95        0.01     0.00   0.828
  sub_90625                 26.50       0.00       0.45       0.57      13.24       8.47      21.72        0.02     0.00   0.819
  sub_90626                 26.50       0.00       0.45       0.51      14.01       7.55      21.56        0.02     0.00   0.814
  sub_90627                 26.50       0.00       0.45       0.90       9.13      13.39      22.52        0.03     0.00   0.850
  sub_90628                 26.50       0.00       0.45       0.74      11.15      10.97      22.12        0.05     0.01   0.835
  sub_90629                 26.50       0.00       0.45       0.86       9.68      12.73      22.41        0.03     0.01   0.846
  sub_90630                 26.50       0.00       0.45       0.36      15.84       5.37      21.21        0.02     0.00   0.800
  sub_90631                 26.50       0.00       0.45       0.56      13.31       8.40      21.70        0.02     0.00   0.819
  sub_90632                 26.50       0.00       0.45       0.59      13.05       8.70      21.75        0.02     0.00   0.821
  sub_90633                 26.50       0.00       0.45       0.36      15.87       5.34      21.20        0.02     0.00   0.800
  sub_90634                 26.50       0.00       0.45       0.54      13.56       8.10      21.65        0.01     0.00   0.817
  sub_90635                 26.50       0.00       0.45       0.80      10.41      11.86      22.27        0.02     0.00   0.840
  sub_90636                 26.50       0.00       0.45       0.60      12.82       8.98      21.80        0.02     0.00   0.823
  sub_90637                 26.50       0.00       0.45       0.56      13.37       8.32      21.69        0.02     0.00   0.819
  sub_90638                 26.50       0.00       0.45       0.33      16.27       4.86      21.13        0.03     0.01   0.797
  sub_90639                 26.50       0.00       0.45       0.85       9.71      12.69      22.40        0.02     0.00   0.845
  sub_90640                 26.50       0.00       0.45       0.43      15.00       6.37      21.37        0.03     0.00   0.807
  sub_90641                 26.50       0.00       0.45       0.53      13.77       7.84      21.61        0.03     0.00   0.816
  sub_90642                 26.50       0.00       0.45       0.67      12.05       9.90      21.95        0.02     0.00   0.828
  sub_90643                 26.50       0.00       0.45       0.43      15.03       6.34      21.37        0.04     0.01   0.806
  sub_90644                 26.50       0.00       0.45       0.37      15.74       5.49      21.23        0.02     0.00   0.801
  sub_90645                 26.50       0.00       0.45       0.52      13.83       7.77      21.60        0.01     0.00   0.815
  sub_90646                 26.50       0.00       0.45       0.98       8.13      14.57      22.71        0.02     0.00   0.857
  sub_90647                 26.50       0.00       0.44       1.35       3.55      20.05      23.60        0.02     0.00   0.891
  sub_90648                 26.50       0.00       0.45       0.36      15.91       5.28      21.19        0.01     0.00   0.800
  sub_90649                 26.50       0.00       0.45       0.52      13.82       7.78      21.60        0.02     0.00   0.815
  sub_90650                 26.50       0.00       0.45       0.52      13.92       7.66      21.58        0.04     0.01   0.814
  sub_90651                 26.50       0.00       0.45       0.42      15.06       6.31      21.36        0.02     0.00   0.806
  sub_90652                 26.50       0.00       0.45       0.54      13.65       7.99      21.64        0.02     0.00   0.816
  sub_90653                 26.50       0.00       0.45       0.65      12.20       9.72      21.92        0.01     0.00   0.827
  sub_90654                 26.50       0.00       0.45       0.75      11.01      11.13      22.15        0.01     0.00   0.836
  sub_90655                 26.50       0.00       0.45       0.49      14.29       7.22      21.51        0.02     0.00   0.812
  sub_90656                 26.50       0.00       0.45       0.86       9.60      12.82      22.42        0.02     0.00   0.846
  sub_90657                 26.50       0.00       0.45       0.91       9.06      13.47      22.53        0.03     0.00   0.850
  sub_90658                 26.50       0.00       0.45       0.52      13.90       7.69      21.59        0.03     0.00   0.815
  sub_90659                 26.50       0.00       0.45       1.18       5.61      17.59      23.20        0.01     0.00   0.875
  sub_90662                 26.50       0.00       0.45       0.61      12.80       9.00      21.80        0.01     0.00   0.823
  sub_90663                 26.50       0.00       0.45       0.83      10.05      12.29      22.34        0.06     0.01   0.843
  sub_90664                 26.50       0.00       0.44       1.63       0.00      24.29      24.29        0.00     0.00   0.917
  sub_90665                 26.50       0.00       0.45       0.76      10.83      11.35      22.18        0.02     0.00   0.837
  sub_90669                 26.50       0.00       0.45       0.62      12.64       9.19      21.83        0.01     0.00   0.824
  sub_90670                 26.50       0.00       0.45       0.45      14.70       6.73      21.43        0.01     0.00   0.809
  sub_90671                 26.50       0.00       0.45       0.50      14.15       7.39      21.54        0.00     0.00   0.813
  sub_90672                 26.50       0.00       0.45       0.66      12.11       9.83      21.94        0.02     0.00   0.828
  sub_90673                 26.50       0.00       0.45       0.84       9.85      12.52      22.37        0.02     0.00   0.844
  sub_90674                 26.50       0.00       0.45       0.24      17.30       3.63      20.93        0.03     0.00   0.790
  sub_90675                 26.50       0.00       0.45       0.37      15.71       5.53      21.24        0.03     0.01   0.801
  sub_90676                 26.50       0.00       0.45       0.55      13.50       8.17      21.66        0.03     0.00   0.818
  sub_90677                 26.50       0.00       0.45       0.80      10.35      11.93      22.28        0.01     0.00   0.841
  sub_90678                 26.50       0.00       0.45       0.72      11.39      10.69      22.08        0.02     0.00   0.833
  sub_90679                 26.50       0.00       0.45       0.79      10.50      11.75      22.25        0.03     0.01   0.840
  sub_90680                 26.50       0.00       0.45       0.45      14.69       6.75      21.43        0.03     0.01   0.809
  sub_90681                 26.50       0.00       0.45       0.80      10.33      11.95      22.28        0.01     0.00   0.841
  sub_90682                 26.50       0.00       0.45       0.72      11.34      10.74      22.08        0.02     0.00   0.833
  sub_90683                 26.50       0.00       0.45       1.19       5.49      17.74      23.22        0.01     0.00   0.876
  sub_90684                 26.50       0.00       0.45       0.27      17.02       3.95      20.98        0.01     0.00   0.792
  sub_90685                 26.50       0.00       0.45       0.19      17.91       2.89      20.81        0.01     0.00   0.785
  sub_90686                 26.50       0.00       0.45       0.72      11.39      10.69      22.08        0.01     0.00   0.833
  sub_90688                 26.50       0.00       0.45       0.54      13.56       8.10      21.65        0.01     0.00   0.817
  sub_90689                 26.50       0.00       0.45       0.87       9.49      12.96      22.45        0.01     0.00   0.847
  sub_90690                 26.50       0.00       0.45       0.68      11.83      10.16      21.99        0.01     0.00   0.830
  sub_90691                 26.50       0.00       0.45       0.59      13.03       8.73      21.76        0.01     0.00   0.821
  sub_90692                 26.50       0.00       0.45       0.51      14.01       7.56      21.57        0.01     0.00   0.814
  sub_90693                 26.50       0.00       0.45       0.96       8.37      14.29      22.66        0.01     0.00   0.855
  sub_90694                 26.50       0.00       0.44       1.32       3.94      19.59      23.53        0.01     0.00   0.888
  sub_90695                 26.50       0.00       0.45       0.74      11.18      10.93      22.12        0.01     0.00   0.835
  sub_90696                 26.50       0.00       0.45       0.82      10.17      12.15      22.31        0.01     0.00   0.842
  sub_90697                 26.50       0.00       0.45       0.84       9.88      12.49      22.37        0.01     0.00   0.844
  sub_90698                 26.50       0.00       0.45       0.95       8.53      14.10      22.63        0.01     0.00   0.854
  sub_90699                 26.50       0.00       0.45       1.13       6.31      16.75      23.06        0.01     0.00   0.870
  sub_90700                 26.50       0.00       0.45       0.31      16.46       4.63      21.09        0.00     0.00   0.796
  sub_90701                 26.50       0.00       0.45       0.29      16.75       4.29      21.03        0.00     0.00   0.794
  sub_90702                 26.50       0.00       0.45       0.33      16.27       4.86      21.13        0.00     0.00   0.797
  sub_90703                 26.50       0.00       0.45       0.84       9.89      12.47      22.37        0.02     0.00   0.844
  sub_90704                 26.50       0.00       0.45       0.81      10.29      12.00      22.29        0.02     0.00   0.841
  sub_90705                 26.50       0.00       0.45       0.87       9.47      12.98      22.45        0.03     0.00   0.847
  sub_90706                 26.50       0.00       0.45       0.60      12.90       8.89      21.78        0.01     0.00   0.822
  sub_90707                 26.50       0.00       0.45       0.40      15.38       5.92      21.30        0.01     0.00   0.804
  sub_90708                 26.50       0.00       0.45       0.97       8.25      14.43      22.69        0.03     0.00   0.856
  sub_90709                 26.50       0.00       0.45       0.72      11.39      10.69      22.08        0.02     0.00   0.833
  sub_90710                 26.50       0.00       0.45       0.94       8.66      13.95      22.61        0.04     0.01   0.853
  sub_90724                 26.50       0.00       0.45       0.98       8.13      14.57      22.71        0.01     0.00   0.857
  sub_90725                 26.50       0.00       0.44       1.63       0.00      24.29      24.29        0.00     0.00   0.917
  sub_90726                 26.50       0.00       0.44       1.63       0.00      24.29      24.29        0.00     0.00   0.917
  sub_90727                 26.50       0.00       0.44       1.63       0.00      24.29      24.29        0.00     0.00   0.917
  sub_90728                 26.50       0.00       0.44       1.63       0.00      24.29      24.29        0.01     0.00   0.917
  sub_90729                 26.50       0.00       0.44       1.63       0.00      24.29      24.29        0.01     0.00   0.917
  sub_90730                 26.50       0.00       0.44       1.63       0.00      24.29      24.29        0.01     0.00   0.917
  sub_90731                 26.50       0.00       0.44       1.63       0.00      24.29      24.29        0.01     0.00   0.917
  sub_90732                 26.50       0.00       0.44       1.63       0.00      24.29      24.29        0.00     0.00   0.917
  sub_90733                 26.50       0.00       0.45       0.48      14.35       7.14      21.50        0.01     0.00   0.811
  
  
  ******************
  Node Depth Summary
  ******************
  
  ---------------------------------------------------------------------------------
                                 Average  Maximum  Maximum  Time of Max    Reported
                                   Depth    Depth      HGL   Occurrence   Max Depth
  Node                 Type       Meters   Meters   Meters  days hr:min      Meters
  ---------------------------------------------------------------------------------
  j_9006F              JUNCTION     0.01     0.19    -0.17     0  18:55        0.19
  j_90334              JUNCTION     0.01     0.08    -0.13     0  17:20        0.08
  j_90335              JUNCTION     0.01     0.16    -0.25     0  18:55        0.16
  j_90336              JUNCTION     0.02     0.15    -0.02     0  18:55        0.15
  j_90363              JUNCTION     0.03     0.18    -0.17     0  18:54        0.18
  j_90364              JUNCTION     0.03     0.18    -0.17     0  18:55        0.18
  j_90365              JUNCTION     0.03     0.18    -0.17     0  18:55        0.18
  j_90366              JUNCTION     0.01     0.07    -0.24     0  18:55        0.07
  j_90367              JUNCTION     0.03     0.24    -0.25     0  18:55        0.24
  j_90368              JUNCTION     0.00     0.04    -0.25     0  18:55        0.04
  j_90369              JUNCTION     0.01     0.07    -0.23     0  18:55        0.07
  j_90370              JUNCTION     0.03     0.25    -0.26     0  18:55        0.25
  j_90371              JUNCTION     0.04     0.29    -0.27     0  18:55        0.29
  j_90372              JUNCTION     0.00     0.03    -0.22     0  18:55        0.03
  j_90373              JUNCTION     0.02     0.21    -0.26     0  18:55        0.21
  j_90374              JUNCTION     0.00     0.03    -0.25     0  18:55        0.03
  j_90375              JUNCTION     0.01     0.09    -0.25     0  18:55        0.09
  j_90376              JUNCTION     0.01     0.05    -0.10     0  18:48        0.05
  j_90377              JUNCTION     0.00     0.05    -0.12     0  18:55        0.05
  j_90378              JUNCTION     0.01     0.11    -0.29     0  18:55        0.11
  j_90379              JUNCTION     0.01     0.07    -0.18     0  18:55        0.07
  j_90380              JUNCTION     0.01     0.08    -0.25     0  18:55        0.08
  j_90381              JUNCTION     0.02     0.15    -0.30     0  18:55        0.15
  j_90382              JUNCTION     0.05     0.43    -0.49     0  18:55        0.42
  j_90383              JUNCTION     0.04     0.38    -0.44     0  18:55        0.38
  j_90384              JUNCTION     0.03     0.18    -0.28     0  18:53        0.18
  j_90385              JUNCTION     0.01     0.08    -0.29     0  18:53        0.08
  j_90386              JUNCTION     0.01     0.07    -0.16     0  18:55        0.07
  j_90387              JUNCTION     0.01     0.06    -0.14     0  18:55        0.06
  j_90388              JUNCTION     0.03     0.13    -0.26     0  18:55        0.13
  j_90389              JUNCTION     0.04     0.28    -0.33     0  18:55        0.28
  j_90390              JUNCTION     0.03     0.28    -0.29     0  18:55        0.28
  j_90391              JUNCTION     0.02     0.18    -0.06     0  18:55        0.18
  j_90392              JUNCTION     0.03     0.20    -0.05     0  18:55        0.20
  j_90393              JUNCTION     0.02     0.16    -0.03     0  18:55        0.16
  j_90394              JUNCTION     0.01     0.09    -0.01     0  18:55        0.09
  j_90395              JUNCTION     0.01     0.09     0.01     0  18:55        0.09
  j_90396              JUNCTION     0.00     0.04     0.02     0  18:55        0.04
  j_90397              JUNCTION     0.04     0.38    -0.39     0  18:55        0.38
  j_90398              JUNCTION     0.02     0.23    -0.39     0  18:55        0.23
  j_90399              JUNCTION     0.01     0.07    -0.24     0  18:55        0.07
  j_90400              JUNCTION     0.00     0.04    -0.22     0  18:55        0.04
  j_90401              JUNCTION     0.01     0.07    -0.24     0  18:55        0.07
  j_90402              JUNCTION     0.01     0.07    -0.29     0  18:55        0.07
  j_90403              JUNCTION     0.00     0.03    -0.22     0  18:55        0.03
  j_90404              JUNCTION     0.01     0.07    -0.23     0  18:55        0.07
  j_90405              JUNCTION     0.01     0.18    -0.38     0  18:55        0.18
  j_90406              JUNCTION     0.01     0.13    -0.37     0  18:55        0.13
  j_90407              JUNCTION     0.00     0.05    -0.36     0  18:55        0.05
  j_90408              JUNCTION     0.01     0.08    -0.24     0  18:55        0.08
  j_90427              JUNCTION     0.03     0.26    -0.17     0  18:55        0.26
  j_90428              JUNCTION     0.02     0.21    -0.16     0  18:55        0.21
  j_90430              JUNCTION     0.01     0.12    -1.45     0  18:56        0.11
  j_90433              JUNCTION     0.01     0.12    -0.25     0  18:55        0.12
  j_90434              JUNCTION     0.04     0.18    -0.25     0  18:55        0.18
  j_90435              JUNCTION     0.01     0.10    -0.27     0  18:55        0.10
  j_90436              JUNCTION     0.02     0.16    -0.30     0  18:55        0.16
  j_90437              JUNCTION     0.06     0.51    -0.85     0  18:55        0.50
  j_90438              JUNCTION     0.08     0.60    -0.75     0  18:55        0.60
  j_90439              JUNCTION     0.01     0.07    -0.14     0  18:55        0.07
  j_90440              JUNCTION     0.01     0.06    -0.10     0  18:55        0.06
  j_90441              JUNCTION     0.00     0.04    -0.09     0  18:55        0.04
  j_90442              JUNCTION     0.05     0.41    -0.23     0  18:55        0.41
  j_90443              JUNCTION     0.08     0.61    -0.69     0  18:55        0.61
  j_90444              JUNCTION     0.04     0.45    -0.66     0  18:55        0.45
  j_90445              JUNCTION     0.01     0.12    -0.31     0  18:55        0.12
  j_90446              JUNCTION     0.01     0.09    -0.27     0  18:55        0.09
  j_90447              JUNCTION     0.01     0.08    -0.17     0  18:55        0.08
  j_90448              JUNCTION     0.01     0.07    -0.20     0  18:55        0.07
  j_90449              JUNCTION     0.02     0.11    -0.37     0  18:55        0.11
  j_90450              JUNCTION     0.01     0.08    -0.39     0  18:55        0.08
  j_90451              JUNCTION     0.04     0.41    -0.61     0  18:55        0.41
  j_90452              JUNCTION     0.01     0.09    -0.33     0  18:55        0.09
  j_90453              JUNCTION     0.05     0.42    -0.54     0  18:55        0.42
  j_90454              JUNCTION     0.01     0.11    -0.36     0  18:55        0.11
  j_90455              JUNCTION     0.02     0.13    -0.41     0  18:55        0.13
  j_90456              JUNCTION     0.02     0.20    -0.46     0  18:55        0.20
  j_90457              JUNCTION     0.03     0.25    -0.51     0  18:55        0.25
  j_90459              JUNCTION     0.04     0.38    -0.67     0  18:55        0.38
  j_90460              JUNCTION     0.02     0.32    -0.64     0  18:55        0.31
  j_90461              JUNCTION     0.05     0.44    -0.64     0  18:55        0.43
  j_90462              JUNCTION     0.04     0.38    -0.60     0  18:55        0.38
  j_90463              JUNCTION     0.02     0.20    -0.53     0  18:55        0.20
  j_90464              JUNCTION     0.01     0.14    -0.49     0  18:55        0.14
  j_90465              JUNCTION     0.01     0.12    -0.42     0  18:55        0.12
  j_90466              JUNCTION     0.01     0.10    -0.34     0  18:55        0.10
  j_90467              JUNCTION     0.02     0.13    -0.29     0  18:55        0.13
  j_90468              JUNCTION     0.02     0.19    -0.33     0  18:55        0.19
  j_90469              JUNCTION     0.02     0.16    -0.40     0  18:55        0.16
  j_90470              JUNCTION     0.02     0.23    -0.44     0  18:55        0.23
  j_90471              JUNCTION     0.02     0.22    -0.48     0  18:55        0.22
  j_90477              JUNCTION     0.01     0.09    -0.22     0  18:55        0.09
  j_90478              JUNCTION     0.02     0.23    -0.18     0  18:55        0.23
  j_90479              JUNCTION     0.01     0.13    -0.19     0  18:55        0.13
  j_90480              JUNCTION     0.01     0.08    -0.17     0  18:55        0.08
  j_90481              JUNCTION     0.02     0.23    -0.17     0  18:55        0.23
  j_90482              JUNCTION     0.03     0.28    -0.17     0  18:55        0.28
  j_90483              JUNCTION     0.01     0.12    -0.16     0  18:55        0.12
  j_90484              JUNCTION     0.01     0.06    -0.14     0  18:49        0.06
  j_90485              JUNCTION     0.02     0.16    -0.17     0  18:55        0.16
  j_90486              JUNCTION     0.04     0.29    -0.17     0  18:55        0.29
  j_90487              JUNCTION     0.03     0.33    -0.19     0  18:55        0.33
  j_90488              JUNCTION     0.05     0.39    -0.21     0  18:55        0.39
  j_90489              JUNCTION     0.01     0.06    -0.17     0  18:55        0.06
  j_90490              JUNCTION     0.01     0.14    -0.17     0  18:55        0.14
  j_90491              JUNCTION     0.04     0.37    -0.17     0  18:55        0.37
  j_90492              JUNCTION     0.05     0.45    -0.17     0  18:55        0.45
  j_90493              JUNCTION     0.01     0.14    -0.18     0  18:55        0.14
  j_90494              JUNCTION     0.06     0.54    -0.20     0  18:55        0.54
  j_90495              JUNCTION     0.06     0.54    -0.17     0  18:55        0.54
  j_90496              JUNCTION     0.01     0.15    -0.17     0  18:55        0.15
  j_90497              JUNCTION     0.00     0.04    -0.14     0  18:55        0.04
  j_90498              JUNCTION     0.03     0.28    -0.20     0  18:55        0.28
  j_90499              JUNCTION     0.03     0.28    -0.19     0  18:55        0.28
  j_90500              JUNCTION     0.02     0.20    -0.18     0  18:55        0.20
  j_90501              JUNCTION     0.01     0.11    -0.16     0  18:55        0.11
  j_90502              JUNCTION     0.01     0.08    -0.15     0  18:55        0.08
  j_90503              JUNCTION     0.01     0.07    -0.16     0  18:55        0.07
  j_90504              JUNCTION     0.02     0.12    -0.16     0  18:55        0.12
  j_90505              JUNCTION     0.03     0.33    -0.17     0  18:55        0.33
  j_90506              JUNCTION     0.04     0.35    -0.16     0  18:55        0.34
  j_90507              JUNCTION     0.01     0.21    -0.16     0  18:55        0.21
  j_90508              JUNCTION     0.02     0.29    -0.16     0  18:55        0.28
  j_90509              JUNCTION     0.01     0.09    -0.16     0  18:55        0.08
  j_90510              JUNCTION     0.01     0.17    -0.14     0  18:55        0.17
  j_90511              JUNCTION     0.06     0.45    -0.14     0  18:55        0.45
  j_90512              JUNCTION     0.04     0.40    -0.14     0  18:55        0.40
  j_90513              JUNCTION     0.01     0.12    -0.14     0  18:55        0.12
  j_90514              JUNCTION     0.01     0.14    -0.18     0  18:55        0.14
  j_90515              JUNCTION     0.03     0.18    -0.23     0  18:55        0.18
  j_90516              JUNCTION     0.04     0.17    -0.27     0  18:55        0.17
  j_90517              JUNCTION     0.04     0.36    -0.56     0  18:55        0.36
  j_90518              JUNCTION     0.04     0.35    -0.53     0  18:55        0.35
  j_90519              JUNCTION     0.03     0.33    -0.50     0  18:55        0.33
  j_90520              JUNCTION     0.02     0.17    -0.18     0  18:55        0.17
  j_90521              JUNCTION     0.01     0.09    -0.15     0  18:55        0.09
  j_90522              JUNCTION     0.02     0.12    -0.15     0  18:55        0.12
  j_90523              JUNCTION     0.01     0.09    -0.11     0  18:55        0.09
  j_90524              JUNCTION     0.03     0.32    -0.13     0  18:55        0.32
  j_90525              JUNCTION     0.02     0.23    -0.12     0  18:55        0.22
  j_90526              JUNCTION     0.01     0.14    -0.12     0  18:55        0.14
  j_90527              JUNCTION     0.01     0.08    -0.10     0  18:55        0.08
  j_90549              JUNCTION     0.01     0.12    -0.29     0  18:55        0.12
  j_90550              JUNCTION     0.09     0.64    -0.59     0  18:58        0.63
  j_90551              JUNCTION     0.00     0.04     0.09     0  18:55        0.04
  j_90553              JUNCTION     0.03     0.19    -0.19     0  18:55        0.19
  j_90554              JUNCTION     0.02     0.14    -0.20     0  18:55        0.14
  j_90555              JUNCTION     0.01     0.08    -0.16     0  18:47        0.08
  j_90556              JUNCTION     0.03     0.17    -0.20     0  18:55        0.17
  j_90557              JUNCTION     0.03     0.18    -0.20     0  18:55        0.18
  j_90558              JUNCTION     0.06     0.49    -0.22     0  18:55        0.49
  j_90559              JUNCTION     0.03     0.36    -0.22     0  18:55        0.36
  j_90560              JUNCTION     0.03     0.34    -0.22     0  18:55        0.34
  j_90561              JUNCTION     0.01     0.19    -0.19     0  18:55        0.19
  j_90562              JUNCTION     0.03     0.25    -0.20     0  18:55        0.25
  j_90563              JUNCTION     0.05     0.47    -0.23     0  18:55        0.47
  j_90564              JUNCTION     0.07     0.58    -0.23     0  18:55        0.58
  j_90565              JUNCTION     0.01     0.11    -0.23     0  18:55        0.11
  j_90566              JUNCTION     0.01     0.05    -0.15     0  18:48        0.05
  j_90567              JUNCTION     0.01     0.06     0.09     0  18:55        0.06
  j_90568              JUNCTION     0.09     0.64    -0.47     0  18:57        0.64
  j_90569              JUNCTION     0.03     0.14    -0.18     0  18:51        0.14
  j_90570              JUNCTION     0.00     0.04    -0.04     0  18:55        0.04
  j_90571              JUNCTION     0.01     0.19    -0.24     0  18:55        0.19
  j_90572              JUNCTION     0.08     0.62    -0.24     0  18:55        0.62
  j_90573              JUNCTION     0.01     0.11    -0.23     0  18:55        0.11
  j_90574              JUNCTION     0.07     0.58    -0.22     0  18:56        0.58
  j_90575              JUNCTION     0.10     0.66    -0.25     0  18:56        0.66
  j_90576              JUNCTION     0.08     0.62    -0.30     0  18:56        0.61
  j_90577              JUNCTION     0.08     0.64    -0.34     0  18:57        0.63
  j_90578              JUNCTION     0.08     0.61    -0.34     0  18:57        0.60
  j_90579              JUNCTION     0.06     0.54    -0.34     0  18:57        0.54
  j_90580              JUNCTION     0.01     0.06    -0.07     0  18:55        0.06
  j_90581              JUNCTION     0.01     0.09    -0.15     0  18:55        0.09
  j_90582              JUNCTION     0.01     0.09    -0.15     0  18:55        0.09
  j_90583              JUNCTION     0.01     0.09    -0.22     0  18:55        0.09
  j_90584              JUNCTION     0.01     0.14    -0.21     0  18:55        0.13
  j_90585              JUNCTION     0.07     0.59    -0.24     0  18:56        0.59
  j_90586              JUNCTION     0.07     0.60    -0.22     0  18:55        0.60
  j_90587              JUNCTION     0.07     0.58    -0.21     0  18:55        0.57
  j_90588              JUNCTION     0.01     0.15    -0.21     0  18:55        0.14
  j_90589              JUNCTION     0.01     0.10    -0.18     0  18:55        0.10
  j_90590              JUNCTION     0.01     0.09    -0.16     0  18:55        0.08
  j_90591              JUNCTION     0.05     0.46    -0.15     0  18:55        0.46
  j_90592              JUNCTION     0.06     0.49    -0.18     0  18:55        0.49
  j_90593              JUNCTION     0.07     0.58    -0.21     0  18:55        0.58
  j_90594              JUNCTION     0.05     0.50    -0.20     0  18:55        0.50
  j_90595              JUNCTION     0.01     0.14    -0.20     0  18:55        0.14
  j_90596              JUNCTION     0.01     0.12    -0.20     0  18:55        0.12
  j_90597              JUNCTION     0.01     0.12    -0.16     0  18:55        0.12
  j_90598              JUNCTION     0.01     0.08    -0.17     0  18:55        0.08
  j_90599              JUNCTION     0.02     0.14    -0.15     0  18:55        0.14
  j_90600              JUNCTION     0.01     0.09    -0.13     0  18:55        0.09
  j_90601              JUNCTION     0.01     0.07    -0.10     0  18:55        0.07
  j_90602              JUNCTION     0.01     0.11    -0.16     0  18:55        0.11
  j_90603              JUNCTION     0.01     0.12    -0.17     0  18:55        0.12
  j_90604              JUNCTION     0.01     0.18    -0.18     0  18:55        0.18
  j_90605              JUNCTION     0.03     0.28    -0.18     0  18:55        0.27
  j_90606              JUNCTION     0.03     0.26    -0.17     0  18:55        0.26
  j_90607              JUNCTION     0.02     0.21    -0.17     0  18:55        0.21
  j_90608              JUNCTION     0.02     0.17    -0.17     0  18:55        0.17
  j_90609              JUNCTION     0.00     0.05    -0.12     0  18:55        0.05
  j_90610              JUNCTION     0.01     0.09    -0.13     0  18:55        0.09
  j_90611              JUNCTION     0.01     0.10    -0.17     0  18:55        0.10
  j_90612              JUNCTION     0.01     0.09    -0.12     0  18:55        0.09
  j_90613              JUNCTION     0.01     0.06    -0.04     0  18:55        0.06
  j_90615              JUNCTION     0.01     0.08    -0.21     0  18:55        0.08
  j_90616              JUNCTION     0.01     0.11    -0.21     0  18:55        0.11
  j_90617              JUNCTION     0.01     0.06    -0.17     0  18:55        0.06
  j_90618              JUNCTION     0.01     0.13    -0.24     0  18:50        0.13
  j_90619              JUNCTION     0.09     0.64    -0.36     0  18:57        0.64
  j_90620              JUNCTION     0.11     0.70    -0.35     0  18:57        0.70
  j_90621              JUNCTION     0.08     0.64    -0.34     0  18:57        0.63
  j_90623              JUNCTION     0.07     0.57    -0.33     0  18:57        0.56
  j_90624              JUNCTION     0.05     0.46    -0.33     0  18:57        0.45
  j_90625              JUNCTION     0.04     0.40    -0.30     0  18:56        0.39
  j_90626              JUNCTION     0.06     0.50    -0.32     0  18:57        0.50
  j_90627              JUNCTION     0.07     0.56    -0.32     0  18:57        0.56
  j_90628              JUNCTION     0.02     0.14    -0.27     0  18:55        0.14
  j_90629              JUNCTION     0.01     0.10    -0.25     0  18:55        0.10
  j_90630              JUNCTION     0.01     0.10    -0.09     0  18:55        0.10
  j_90631              JUNCTION     0.02     0.14    -0.28     0  18:55        0.14
  j_90632              JUNCTION     0.02     0.16    -0.29     0  18:55        0.16
  j_90633              JUNCTION     0.01     0.18    -0.30     0  18:56        0.18
  j_90634              JUNCTION     0.09     0.58    -0.30     0  18:56        0.57
  j_90635              JUNCTION     0.04     0.40    -0.30     0  18:56        0.39
  j_90636              JUNCTION     0.03     0.27    -0.30     0  18:57        0.27
  j_90637              JUNCTION     0.05     0.42    -0.29     0  18:56        0.42
  j_90638              JUNCTION     0.02     0.21    -0.27     0  18:55        0.21
  j_90639              JUNCTION     0.02     0.15    -0.25     0  18:55        0.15
  j_90640              JUNCTION     0.01     0.07    -0.22     0  18:55        0.07
  j_90641              JUNCTION     0.05     0.50    -0.34     0  18:58        0.50
  j_90642              JUNCTION     0.04     0.39    -0.34     0  18:58        0.39
  j_90643              JUNCTION     0.03     0.38    -0.34     0  18:58        0.38
  j_90644              JUNCTION     0.01     0.08    -0.07     0  18:55        0.08
  j_90645              JUNCTION     0.00     0.03     0.10     0  18:55        0.03
  j_90646              JUNCTION     0.02     0.12     0.02     0  18:55        0.12
  j_90647              JUNCTION     0.01     0.05     0.08     0  18:55        0.05
  j_90648              JUNCTION     0.01     0.09    -0.20     0  18:55        0.09
  j_90649              JUNCTION     0.01     0.10    -0.11     0  18:55        0.10
  j_90650              JUNCTION     0.02     0.16    -0.22     0  18:55        0.16
  j_90651              JUNCTION     0.01     0.14    -0.30     0  18:57        0.14
  j_90652              JUNCTION     0.01     0.13    -0.29     0  18:55        0.13
  j_90653              JUNCTION     0.00     0.05    -0.19     0  18:55        0.05
  j_90654              JUNCTION     0.04     0.37    -0.23     0  18:56        0.37
  j_90655              JUNCTION     0.05     0.42    -0.24     0  18:56        0.41
  j_90656              JUNCTION     0.05     0.43    -0.26     0  18:56        0.42
  j_90657              JUNCTION     0.01     0.05     0.28     0  18:55        0.05
  j_90658              JUNCTION     0.01     0.07     0.20     0  18:55        0.07
  j_90659              JUNCTION     0.01     0.08     0.10     0  18:55        0.08
  j_90662              JUNCTION     0.01     0.07    -0.25     0  18:55        0.07
  j_90663              JUNCTION     0.02     0.21    -0.22     0  18:55        0.21
  j_90664              JUNCTION     0.01     0.07    -0.20     0  18:55        0.07
  j_90665              JUNCTION     0.08     0.62    -0.35     0  18:57        0.62
  j_90669              JUNCTION     0.04     0.26     0.03     0  18:55        0.26
  j_90670              JUNCTION     0.05     0.28     0.03     0  18:55        0.28
  j_90671              JUNCTION     0.05     0.29     0.03     0  18:55        0.29
  j_90672              JUNCTION     0.02     0.26    -0.20     0  18:56        0.26
  j_90673              JUNCTION     0.04     0.33    -0.20     0  18:55        0.33
  j_90674              JUNCTION     0.04     0.37    -0.23     0  18:55        0.37
  j_90675              JUNCTION     0.03     0.23     0.01     0  18:55        0.23
  j_90676              JUNCTION     0.04     0.27     0.03     0  18:55        0.27
  j_90677              JUNCTION     0.06     0.32     0.03     0  18:55        0.32
  j_90678              JUNCTION     0.01     0.13     0.03     0  18:55        0.13
  j_90679              JUNCTION     0.01     0.07     0.05     0  18:55        0.07
  j_90680              JUNCTION     0.03     0.25    -0.05     0  18:55        0.25
  j_90681              JUNCTION     0.04     0.28    -0.10     0  18:55        0.28
  j_90682              JUNCTION     0.00     0.04     0.01     0  18:55        0.04
  j_90683              JUNCTION     0.03     0.28    -0.17     0  18:55        0.28
  j_90684              JUNCTION     0.02     0.19    -0.17     0  18:55        0.19
  j_90685              JUNCTION     0.00     0.04     0.15     0  18:55        0.04
  j_90686              JUNCTION     0.02     0.23    -0.17     0  18:55        0.23
  j_90688              JUNCTION     0.00     0.04     0.49     0  18:55        0.04
  j_90689              JUNCTION     0.01     0.10    -0.20     0  18:55        0.10
  j_90690              JUNCTION     0.01     0.09    -0.16     0  18:55        0.09
  j_90691              JUNCTION     0.01     0.06     0.16     0  18:55        0.06
  j_90692              JUNCTION     0.00     0.04     0.24     0  18:55        0.04
  j_90693              JUNCTION     0.00     0.03     0.06     0  18:55        0.03
  j_90694              JUNCTION     0.01     0.05     0.11     0  18:55        0.05
  j_90695              JUNCTION     0.00     0.04     0.54     0  18:55        0.04
  j_90696              JUNCTION     0.01     0.06     0.06     0  18:55        0.06
  j_90697              JUNCTION     0.01     0.07     0.00     0  18:55        0.07
  j_90698              JUNCTION     0.01     0.08    -0.04     0  18:55        0.08
  j_90699              JUNCTION     0.01     0.09    -0.09     0  18:55        0.09
  j_90700              JUNCTION     0.00     0.03     0.53     0  18:55        0.03
  j_90701              JUNCTION     0.00     0.02     0.52     0  18:55        0.02
  j_90702              JUNCTION     0.00     0.02     0.52     0  18:55        0.02
  j_90703              JUNCTION     0.03     0.31    -0.17     0  18:55        0.31
  j_90704              JUNCTION     0.01     0.08    -0.14     0  18:49        0.08
  j_90705              JUNCTION     0.01     0.09    -0.17     0  18:55        0.09
  j_90706              JUNCTION     0.04     0.40    -0.14     0  18:55        0.40
  j_90707              JUNCTION     0.02     0.24    -0.14     0  18:55        0.24
  j_90708              JUNCTION     0.01     0.06    -0.05     0  18:47        0.06
  j_90709              JUNCTION     0.01     0.08    -0.12     0  18:55        0.08
  j_90710              JUNCTION     0.01     0.06     0.01     0  18:55        0.06
  j_90724              JUNCTION     0.05     0.29     0.03     0  18:55        0.29
  j_90725              JUNCTION     0.00     0.04     0.04     0  17:20        0.04
  j_90726              JUNCTION     0.00     0.03     0.08     0  17:20        0.03
  j_90727              JUNCTION     0.00     0.02     0.12     0  17:20        0.02
  j_90728              JUNCTION     0.01     0.05     0.11     0  17:20        0.05
  j_90729              JUNCTION     0.00     0.03     0.26     0  17:20        0.03
  j_90730              JUNCTION     0.01     0.11     0.03     0  18:55        0.11
  j_90731              JUNCTION     0.01     0.05     0.15     0  17:20        0.05
  j_90732              JUNCTION     0.00     0.02     0.17     0  17:20        0.02
  j_90733              JUNCTION     0.02     0.17     0.03     0  18:55        0.17
  j_91272              JUNCTION     0.00     0.00     0.17     0  00:00        0.00
  j_91273              JUNCTION     0.00     0.00     0.47     0  00:00        0.00
  j_91274              JUNCTION     0.00     0.00     0.23     0  00:00        0.00
  j_91275              JUNCTION     0.00     0.00     0.47     0  00:00        0.00
  j_91276              JUNCTION     0.00     0.00     0.28     0  00:00        0.00
  j_91277              JUNCTION     0.00     0.00     0.51     0  00:00        0.00
  j_91278              JUNCTION     0.00     0.00     0.35     0  00:00        0.00
  j_91279              JUNCTION     0.00     0.00     0.50     0  00:00        0.00
  j_91292              JUNCTION     0.00     0.00    -0.01     0  00:00        0.00
  j_91293              JUNCTION     0.00     0.00    -0.23     0  00:00        0.00
  j_91294              JUNCTION     0.00     0.00     0.31     0  00:00        0.00
  j_90552              OUTFALL      0.00     0.00    -1.29     0  00:00        0.00
  j_90431              OUTFALL      0.01     0.12    -1.49     0  18:56        0.11
  
  
  *******************
  Node Inflow Summary
  *******************
  
  -------------------------------------------------------------------------------------------------
                                  Maximum  Maximum                  Lateral       Total        Flow
                                  Lateral    Total  Time of Max      Inflow      Inflow     Balance
                                   Inflow   Inflow   Occurrence      Volume      Volume       Error
  Node                 Type           CMS      CMS  days hr:min    10^6 ltr    10^6 ltr     Percent
  -------------------------------------------------------------------------------------------------
  j_9006F              JUNCTION     0.001    0.001     0  18:55     0.00844     0.00848       0.000
  j_90334              JUNCTION     0.004    0.004     0  17:20      0.0276      0.0276       0.000
  j_90335              JUNCTION     0.007    0.007     0  18:55      0.0408      0.0408       0.000
  j_90336              JUNCTION     0.001    0.005     0  18:55     0.00713      0.0339       0.000
  j_90363              JUNCTION     0.008    0.008     0  18:55      0.0457      0.0457       0.000
  j_90364              JUNCTION     0.002    0.014     0  18:50      0.0128      0.0886      -0.004
  j_90365              JUNCTION     0.000    0.001     0  17:06     0.00219     0.00256       2.100
  j_90366              JUNCTION     0.003    0.003     0  18:55      0.0154      0.0154       0.000
  j_90367              JUNCTION     0.002    0.019     0  18:55      0.0147       0.118       0.008
  j_90368              JUNCTION     0.000    0.000     0  18:46           0    3.79e-05       3.831
  j_90369              JUNCTION     0.006    0.006     0  18:55      0.0356      0.0356       0.000
  j_90370              JUNCTION     0.003    0.015     0  18:55      0.0156       0.092      -0.065
  j_90371              JUNCTION     0.004    0.046     0  18:55      0.0205       0.283       0.006
  j_90372              JUNCTION     0.001    0.001     0  18:55     0.00868     0.00868       0.000
  j_90373              JUNCTION     0.002    0.009     0  18:50      0.0141      0.0523      -0.011
  j_90374              JUNCTION     0.000    0.000     0  18:36           0    7.43e-05       0.000
  j_90375              JUNCTION     0.003    0.005     0  18:55       0.018      0.0295      -0.090
  j_90376              JUNCTION     0.000    0.002     0  18:55     0.00304      0.0107       0.000
  j_90377              JUNCTION     0.003    0.004     0  18:49       0.015      0.0258      -0.149
  j_90378              JUNCTION     0.003    0.007     0  18:55      0.0167      0.0421       0.000
  j_90379              JUNCTION     0.004    0.004     0  18:55      0.0253      0.0253      -0.158
  j_90380              JUNCTION     0.005    0.005     0  18:55      0.0286      0.0286       0.000
  j_90381              JUNCTION     0.003    0.007     0  18:55      0.0172      0.0459       0.227
  j_90382              JUNCTION     0.003    0.106     0  18:55      0.0205       0.681      -0.016
  j_90383              JUNCTION     0.003    0.096     0  18:55      0.0175       0.614      -0.016
  j_90384              JUNCTION     0.002    0.008     0  18:51     0.00998      0.0494       0.051
  j_90385              JUNCTION     0.002    0.006     0  18:55      0.0139      0.0395       0.053
  j_90386              JUNCTION     0.004    0.004     0  18:55      0.0256      0.0256      -0.102
  j_90387              JUNCTION     0.003    0.003     0  18:55      0.0164      0.0164       0.000
  j_90388              JUNCTION     0.002    0.004     0  18:55        0.01      0.0264       0.566
  j_90389              JUNCTION     0.002    0.067     0  18:55      0.0134       0.426       0.000
  j_90390              JUNCTION     0.001    0.051     0  18:55     0.00738       0.317      -0.001
  j_90391              JUNCTION     0.002    0.015     0  18:55     0.00972      0.0955       0.004
  j_90392              JUNCTION     0.003    0.013     0  18:55      0.0197      0.0858       0.058
  j_90393              JUNCTION     0.005    0.010     0  18:55      0.0322      0.0661      -0.057
  j_90394              JUNCTION     0.002    0.004     0  18:55      0.0102      0.0268       0.130
  j_90395              JUNCTION     0.002    0.003     0  18:55      0.0119      0.0166       0.024
  j_90396              JUNCTION     0.001    0.001     0  18:46     0.00468     0.00468      -0.137
  j_90397              JUNCTION     0.002    0.086     0  18:55      0.0142       0.547      -0.002
  j_90398              JUNCTION     0.003    0.017     0  18:55       0.016       0.108      -0.004
  j_90399              JUNCTION     0.003    0.004     0  18:55      0.0164      0.0239       0.011
  j_90400              JUNCTION     0.002    0.002     0  18:46      0.0105      0.0128      -0.098
  j_90401              JUNCTION     0.003    0.004     0  18:55      0.0163      0.0216       0.124
  j_90402              JUNCTION     0.003    0.003     0  18:55      0.0164      0.0181       0.000
  j_90403              JUNCTION     0.002    0.002     0  18:55     0.00982     0.00982      -0.175
  j_90404              JUNCTION     0.003    0.003     0  18:55       0.016      0.0218       0.027
  j_90405              JUNCTION     0.003    0.011     0  18:55      0.0172      0.0677       0.005
  j_90406              JUNCTION     0.003    0.008     0  18:55      0.0161      0.0505       0.011
  j_90407              JUNCTION     0.002    0.002     0  18:55      0.0125      0.0125      -0.210
  j_90408              JUNCTION     0.005    0.005     0  18:55      0.0327      0.0327      -0.061
  j_90427              JUNCTION     0.006    0.012     0  18:55      0.0343      0.0744       0.000
  j_90428              JUNCTION     0.003    0.007     0  18:55      0.0198        0.04      -0.141
  j_90430              JUNCTION     0.002    0.369     0  18:56      0.0104        2.42       0.004
  j_90433              JUNCTION     0.001    0.001     0  18:55     0.00535     0.00539       0.000
  j_90434              JUNCTION     0.002    0.005     0  18:54      0.0118      0.0317       1.209
  j_90435              JUNCTION     0.003    0.008     0  18:55      0.0184      0.0496      -0.040
  j_90436              JUNCTION     0.002    0.021     0  18:55      0.0105       0.127       0.000
  j_90437              JUNCTION     0.004    0.368     0  18:55      0.0237        2.41       0.001
  j_90438              JUNCTION     0.003    0.337     0  18:55      0.0189        2.21       0.001
  j_90439              JUNCTION     0.002    0.006     0  18:55      0.0109      0.0398       0.000
  j_90440              JUNCTION     0.005    0.005     0  18:55      0.0334      0.0334       0.142
  j_90441              JUNCTION     0.002    0.002     0  18:55      0.0159      0.0159      -0.040
  j_90442              JUNCTION     0.005    0.077     0  18:55      0.0368        0.51       0.008
  j_90443              JUNCTION     0.008    0.330     0  18:55        0.05        2.14      -0.010
  j_90444              JUNCTION     0.003    0.138     0  18:55      0.0191       0.895      -0.000
  j_90445              JUNCTION     0.003    0.009     0  18:55      0.0172       0.059       0.007
  j_90446              JUNCTION     0.003    0.007     0  18:55      0.0166      0.0419       0.061
  j_90447              JUNCTION     0.004    0.004     0  18:55      0.0253      0.0253      -0.123
[...]
  c_905261                1.00   0.80  0.01  0.00  0.19  0.00  0.00  0.00  0.36  0.00
  c_905271                1.00   0.81  0.01  0.00  0.19  0.00  0.00  0.00  0.37  0.00
  c_905501                1.00   0.61  0.00  0.00  0.00  0.00  0.00  0.39  0.00  0.00
  c_905511                1.00   0.61  0.00  0.00  0.00  0.00  0.00  0.39  0.00  0.00
  c_905521                1.00   0.61  0.00  0.00  0.00  0.00  0.00  0.39  0.00  0.00
  c_905541                1.00   0.61  0.23  0.00  0.16  0.00  0.00  0.00  0.00  0.00
  c_905551                1.00   0.61  0.00  0.00  0.07  0.00  0.00  0.32  0.00  0.00
  c_905561                1.00   0.61  0.00  0.00  0.39  0.00  0.00  0.00  0.00  0.00
  c_905571                1.00   0.61  0.00  0.00  0.39  0.00  0.00  0.00  0.00  0.00
  c_905572                1.00   0.61  0.13  0.00  0.25  0.00  0.00  0.00  0.16  0.00
  c_905581                1.00   0.61  0.00  0.00  0.12  0.00  0.00  0.27  0.10  0.00
  c_905591                1.00   0.61  0.14  0.00  0.24  0.00  0.00  0.00  0.25  0.00
  c_905601                1.00   0.76  0.02  0.00  0.23  0.00  0.00  0.00  0.17  0.00
  c_905602                1.00   0.77  0.03  0.00  0.20  0.00  0.00  0.00  0.37  0.00
  c_905611                1.00   0.61  0.18  0.00  0.21  0.00  0.00  0.00  0.23  0.00
  c_905621                1.00   0.61  0.18  0.00  0.21  0.00  0.00  0.00  0.29  0.00
  c_905622                1.00   0.61  0.18  0.00  0.20  0.00  0.00  0.00  0.37  0.00
  c_905631                1.00   0.61  0.00  0.00  0.11  0.00  0.00  0.28  0.02  0.00
  c_905632                1.00   0.61  0.00  0.00  0.39  0.00  0.00  0.00  0.00  0.00
  c_905641                1.00   0.61  0.00  0.00  0.20  0.00  0.00  0.19  0.03  0.00
  c_905651                1.00   0.61  0.00  0.00  0.11  0.00  0.00  0.28  0.08  0.00
  c_905661                1.00   0.61  0.00  0.00  0.02  0.00  0.00  0.37  0.00  0.00
  c_905681                1.00   0.61  0.00  0.00  0.39  0.00  0.00  0.00  0.22  0.00
  c_905682                1.00   0.61  0.00  0.00  0.00  0.00  0.00  0.39  0.00  0.00
  c_905691                1.00   0.61  0.21  0.00  0.18  0.00  0.00  0.00  0.38  0.00
  c_905701                1.00   0.61  0.00  0.00  0.00  0.00  0.00  0.39  0.00  0.00
  c_905711                1.00   0.61  0.00  0.00  0.19  0.00  0.00  0.20  0.16  0.00
  c_905721                1.00   0.61  0.00  0.00  0.22  0.00  0.00  0.17  0.00  0.00
  c_905722                1.00   0.61  0.00  0.00  0.13  0.00  0.00  0.25  0.07  0.00
  c_905731                1.00   0.61  0.00  0.00  0.18  0.00  0.00  0.21  0.00  0.00
  c_905732                1.00   0.61  0.00  0.00  0.12  0.00  0.00  0.27  0.10  0.00
  c_905741                1.00   0.61  0.08  0.00  0.31  0.00  0.00  0.00  0.21  0.00
  c_905751                1.00   0.61  0.05  0.00  0.34  0.00  0.00  0.00  0.21  0.00
  c_905752                1.00   0.61  0.00  0.00  0.39  0.00  0.00  0.00  0.13  0.00
  c_905761                1.00   0.61  0.00  0.00  0.39  0.00  0.00  0.00  0.02  0.00
  c_905771                1.00   0.61  0.00  0.00  0.39  0.00  0.00  0.00  0.10  0.00
  c_905781                1.00   0.61  0.14  0.00  0.25  0.00  0.00  0.00  0.17  0.00
  c_905791                1.00   0.75  0.01  0.00  0.24  0.00  0.00  0.00  0.20  0.00
  c_905811                1.00   0.78  0.04  0.00  0.18  0.00  0.00  0.00  0.37  0.00
  c_905821                1.00   0.61  0.00  0.00  0.39  0.00  0.00  0.00  0.00  0.00
  c_905831                1.00   0.61  0.21  0.00  0.18  0.00  0.00  0.00  0.38  0.00
  c_905841                1.00   0.61  0.17  0.00  0.22  0.00  0.00  0.00  0.37  0.00
  c_905851                1.00   0.61  0.02  0.00  0.36  0.00  0.00  0.00  0.19  0.00
  c_905852                1.00   0.61  0.00  0.00  0.12  0.00  0.00  0.27  0.10  0.00
  c_905861                1.00   0.61  0.00  0.00  0.24  0.00  0.00  0.15  0.00  0.00
  c_905862                1.00   0.61  0.00  0.00  0.10  0.00  0.00  0.28  0.06  0.00
  c_905871                1.00   0.61  0.03  0.00  0.36  0.00  0.00  0.00  0.18  0.00
  c_905881                1.00   0.61  0.00  0.00  0.14  0.00  0.00  0.25  0.11  0.00
  c_905891                1.00   0.61  0.20  0.00  0.19  0.00  0.00  0.00  0.35  0.00
  c_905892                1.00   0.81  0.02  0.00  0.16  0.00  0.00  0.00  0.33  0.00
  c_905901                1.00   0.79  0.02  0.00  0.19  0.00  0.00  0.00  0.37  0.00
  c_905902                1.00   0.81  0.00  0.00  0.16  0.00  0.00  0.03  0.00  0.00
  c_905921                1.00   0.61  0.07  0.00  0.31  0.00  0.00  0.00  0.21  0.00
  c_905931                1.00   0.61  0.00  0.00  0.39  0.00  0.00  0.00  0.00  0.00
  c_905941                1.00   0.61  0.05  0.00  0.34  0.00  0.00  0.00  0.22  0.00
  c_905942                1.00   0.61  0.00  0.00  0.17  0.00  0.22  0.00  0.00  0.00
  c_905951                1.00   0.61  0.00  0.00  0.11  0.00  0.00  0.28  0.07  0.00
  c_905961                1.00   0.61  0.00  0.00  0.12  0.00  0.00  0.27  0.08  0.00
  c_905971                1.00   0.61  0.16  0.00  0.23  0.00  0.00  0.00  0.28  0.00
  c_905981                1.00   0.61  0.20  0.00  0.19  0.00  0.00  0.00  0.37  0.00
  c_905982                1.00   0.77  0.04  0.00  0.19  0.00  0.00  0.00  0.24  0.00
  c_905991                1.00   0.61  0.03  0.00  0.35  0.00  0.00  0.00  0.04  0.00
  c_906001                1.00   0.78  0.03  0.00  0.19  0.00  0.00  0.00  0.37  0.00
  c_906011                1.00   0.81  0.01  0.00  0.18  0.00  0.00  0.00  0.36  0.00
  c_906031                1.00   0.61  0.00  0.00  0.18  0.00  0.00  0.21  0.00  0.00
  c_906041                1.00   0.61  0.22  0.00  0.17  0.00  0.00  0.00  0.37  0.00
  c_906051                1.00   0.61  0.15  0.00  0.24  0.00  0.00  0.00  0.32  0.00
  c_906052                1.00   0.61  0.00  0.00  0.14  0.00  0.00  0.25  0.05  0.00
  c_906061                1.00   0.61  0.09  0.00  0.29  0.00  0.00  0.00  0.26  0.00
  c_906071                1.00   0.61  0.13  0.00  0.26  0.00  0.00  0.00  0.22  0.00
  c_906081                1.00   0.74  0.02  0.00  0.24  0.00  0.00  0.00  0.24  0.00
  c_906082                1.00   0.61  0.00  0.00  0.39  0.00  0.00  0.00  0.30  0.00
  c_906091                1.00   0.61  0.19  0.00  0.20  0.00  0.00  0.00  0.38  0.00
  c_906101                1.00   0.61  0.19  0.00  0.20  0.00  0.00  0.00  0.35  0.00
  c_906111                1.00   0.61  0.00  0.00  0.20  0.00  0.00  0.19  0.17  0.00
  c_906112                1.00   0.61  0.00  0.00  0.18  0.00  0.00  0.21  0.01  0.00
  c_906121                1.00   0.61  0.19  0.00  0.19  0.00  0.00  0.00  0.37  0.00
  c_906131                1.00   0.81  0.01  0.00  0.19  0.00  0.00  0.00  0.38  0.00
  c_906132                1.00   0.81  0.00  0.00  0.19  0.00  0.00  0.00  0.38  0.00
  c_906151                1.00   0.61  0.00  0.00  0.14  0.00  0.00  0.25  0.04  0.00
  c_906161                1.00   0.61  0.19  0.00  0.19  0.00  0.00  0.00  0.37  0.00
  c_906171                1.00   0.81  0.00  0.00  0.19  0.00  0.00  0.00  0.38  0.00
  c_906181                1.00   0.61  0.20  0.00  0.19  0.00  0.00  0.00  0.38  0.00
  c_906191                1.00   0.61  0.00  0.00  0.39  0.00  0.00  0.00  0.17  0.00
  c_906192                1.00   0.61  0.00  0.00  0.39  0.00  0.00  0.00  0.15  0.00
  c_906201                1.00   0.61  0.00  0.00  0.39  0.00  0.00  0.00  0.00  0.00
  c_906202                1.00   0.61  0.00  0.00  0.02  0.00  0.00  0.37  0.01  0.00
  c_906211                1.00   0.61  0.00  0.00  0.39  0.00  0.00  0.00  0.15  0.00
  c_906231                1.00   0.61  0.00  0.00  0.39  0.00  0.00  0.00  0.20  0.00
  c_906241                1.00   0.77  0.01  0.00  0.21  0.00  0.00  0.00  0.21  0.00
  c_906261                1.00   0.78  0.01  0.00  0.21  0.00  0.00  0.00  0.24  0.00
  c_906271                1.00   0.77  0.01  0.00  0.22  0.00  0.00  0.00  0.18  0.00
  c_906272                1.00   0.61  0.00  0.00  0.39  0.00  0.00  0.00  0.00  0.00
  c_906281                1.00   0.61  0.00  0.00  0.06  0.00  0.00  0.32  0.05  0.00
  c_906291                1.00   0.61  0.19  0.00  0.20  0.00  0.00  0.00  0.36  0.00
  c_906301                1.00   0.61  0.00  0.00  0.00  0.00  0.00  0.39  0.00  0.00
  c_906321                1.00   0.80  0.20  0.00  0.00  0.00  0.00  0.00  0.00  0.00
  c_906322                1.00   0.61  0.00  0.00  0.16  0.00  0.00  0.23  0.00  0.00
  c_906331                1.00   0.61  0.14  0.00  0.25  0.00  0.00  0.00  0.22  0.00
  c_906341                1.00   0.61  0.00  0.00  0.13  0.00  0.00  0.26  0.08  0.00
  c_906342                1.00   0.61  0.00  0.00  0.26  0.00  0.00  0.12  0.00  0.00
  c_906351                1.00   0.79  0.04  0.00  0.18  0.00  0.00  0.00  0.26  0.00
  c_906352                1.00   0.61  0.00  0.00  0.17  0.00  0.00  0.22  0.00  0.00
  c_906361                1.00   0.61  0.00  0.00  0.19  0.00  0.00  0.19  0.09  0.00
  c_906371                1.00   0.61  0.00  0.00  0.39  0.00  0.00  0.00  0.26  0.00
  c_906381                1.00   0.61  0.00  0.00  0.10  0.00  0.00  0.28  0.02  0.00
  c_906391                1.00   0.61  0.14  0.00  0.25  0.00  0.00  0.00  0.37  0.00
  c_906401                1.00   0.61  0.29  0.00  0.00  0.00  0.10  0.00  0.00  0.00
  c_906402                1.00   0.61  0.00  0.00  0.12  0.00  0.00  0.27  0.02  0.00
  c_906411                1.00   0.76  0.01  0.00  0.23  0.00  0.00  0.00  0.20  0.00
  c_906421                1.00   0.77  0.01  0.00  0.22  0.00  0.00  0.00  0.24  0.00
  c_906431                1.00   0.62  0.00  0.00  0.38  0.00  0.00  0.00  0.21  0.00
  c_906441                1.00   0.61  0.00  0.00  0.00  0.00  0.00  0.39  0.00  0.00
  c_906461                1.00   0.61  0.15  0.00  0.24  0.00  0.00  0.00  0.38  0.00
  c_906471                1.00   0.80  0.01  0.00  0.19  0.00  0.00  0.00  0.37  0.00
  c_906481                1.00   0.61  0.19  0.00  0.19  0.00  0.00  0.00  0.38  0.00
  c_906491                1.00   0.84  0.00  0.00  0.15  0.00  0.00  0.01  0.01  0.00
  c_906492                1.00   0.61  0.00  0.00  0.00  0.00  0.00  0.39  0.00  0.00
  c_906501                1.00   0.61  0.03  0.00  0.36  0.00  0.00  0.00  0.38  0.00
  c_906511                1.00   0.61  0.14  0.00  0.25  0.00  0.00  0.00  0.36  0.00
  c_906521                1.00   0.75  0.03  0.00  0.22  0.00  0.00  0.00  0.19  0.00
  c_906531                1.00   0.78  0.03  0.00  0.19  0.00  0.00  0.00  0.38  0.00
  c_906541                1.00   0.61  0.00  0.00  0.39  0.00  0.00  0.00  0.22  0.00
  c_906561                1.00   0.61  0.00  0.00  0.21  0.00  0.18  0.00  0.00  0.00
  c_906562                1.00   0.61  0.00  0.00  0.39  0.00  0.00  0.00  0.00  0.00
  c_906563                1.00   0.61  0.00  0.00  0.09  0.00  0.00  0.30  0.04  0.00
  c_906581                1.00   0.80  0.01  0.00  0.19  0.00  0.00  0.00  0.37  0.00
  c_906591                1.00   0.61  0.00  0.00  0.00  0.00  0.00  0.39  0.00  0.00
  c_906592                1.00   0.61  0.19  0.00  0.20  0.00  0.00  0.00  0.37  0.00
  c_906621                1.00   0.61  0.00  0.00  0.00  0.00  0.00  0.39  0.00  0.00
  c_906622                1.00   0.61  0.03  0.00  0.28  0.08  0.00  0.00  0.25  0.00
  c_906631                1.00   0.61  0.00  0.00  0.06  0.00  0.00  0.32  0.00  0.00
  c_906641                1.00   0.61  0.00  0.00  0.15  0.00  0.00  0.24  0.00  0.00
  c_906651                1.00   0.61  0.00  0.00  0.26  0.00  0.00  0.13  0.00  0.00
  c_906701                1.00   0.61  0.00  0.00  0.39  0.00  0.00  0.00  0.00  0.00
  c_906731                1.00   0.61  0.00  0.00  0.18  0.00  0.00  0.21  0.00  0.00
  c_906741                1.00   0.61  0.00  0.00  0.39  0.00  0.00  0.00  0.00  0.00
  c_906742                1.00   0.61  0.00  0.00  0.27  0.00  0.00  0.12  0.04  0.00
  c_906751                1.00   0.70  0.08  0.00  0.22  0.00  0.00  0.00  0.21  0.00
  c_906761                1.00   0.61  0.00  0.00  0.39  0.00  0.00  0.00  0.00  0.00
  c_906771                1.00   0.61  0.00  0.00  0.39  0.00  0.00  0.00  0.00  0.00
  c_906772                1.00   0.61  0.00  0.00  0.39  0.00  0.00  0.00  0.00  0.00
  c_906781                1.00   0.61  0.16  0.00  0.23  0.00  0.00  0.00  0.27  0.00
  c_906791                1.00   0.77  0.03  0.00  0.19  0.00  0.00  0.00  0.33  0.00
  c_906801                1.00   0.61  0.00  0.00  0.19  0.00  0.00  0.20  0.09  0.00
  c_906811                1.00   0.61  0.00  0.00  0.39  0.00  0.00  0.00  0.26  0.00
  c_906821                1.00   0.61  0.17  0.00  0.22  0.00  0.00  0.00  0.38  0.00
  c_906831                1.00   0.61  0.00  0.00  0.10  0.00  0.00  0.28  0.00  0.00
  c_906832                1.00   0.61  0.00  0.00  0.39  0.00  0.00  0.00  0.27  0.00
  c_906841                1.00   0.61  0.00  0.00  0.16  0.00  0.00  0.23  0.00  0.00
  c_906851                1.00   0.61  0.00  0.00  0.00  0.00  0.00  0.39  0.00  0.00
  c_906861                1.00   0.61  0.16  0.00  0.23  0.00  0.00  0.00  0.22  0.00
  c_906862                1.00   0.77  0.03  0.00  0.20  0.00  0.00  0.00  0.24  0.00
  c_906891                1.00   0.61  0.00  0.00  0.00  0.00  0.00  0.39  0.00  0.00
  c_906892                1.00   0.61  0.00  0.00  0.00  0.00  0.00  0.39  0.00  0.00
  c_906901                1.00   0.61  0.13  0.00  0.26  0.00  0.00  0.00  0.37  0.00
  c_906911                1.00   0.61  0.00  0.00  0.00  0.00  0.00  0.39  0.00  0.00
  c_906921                1.00   0.61  0.17  0.00  0.22  0.00  0.00  0.00  0.38  0.00
  c_906931                1.00   0.78  0.22  0.00  0.00  0.00  0.00  0.00  0.00  0.00
  c_906932                1.00   0.61  0.00  0.00  0.00  0.00  0.00  0.39  0.00  0.00
  c_906941                1.00   0.61  0.39  0.00  0.00  0.00  0.00  0.00  0.00  0.00
  c_906951                1.00   0.61  0.00  0.00  0.00  0.00  0.00  0.39  0.00  0.00
  c_906961                1.00   0.61  0.00  0.00  0.39  0.00  0.00  0.00  0.37  0.00
  c_906971                1.00   0.61  0.00  0.00  0.39  0.00  0.00  0.00  0.38  0.00
  c_906981                1.00   0.61  0.00  0.00  0.39  0.00  0.00  0.00  0.37  0.00
  c_906991                1.00   0.61  0.00  0.00  0.39  0.00  0.00  0.00  0.36  0.00
  c_906992                1.00   0.74  0.02  0.00  0.24  0.00  0.00  0.00  0.37  0.00
  c_907001                1.00   0.61  0.00  0.00  0.00  0.00  0.00  0.39  0.00  0.00
  c_907011                1.00   0.61  0.00  0.00  0.00  0.00  0.00  0.39  0.00  0.00
  c_907021                1.00   0.61  0.00  0.00  0.00  0.00  0.00  0.39  0.00  0.00
  c_907031                1.00   0.61  0.14  0.00  0.24  0.00  0.00  0.00  0.21  0.00
  c_907032                1.00   0.61  0.00  0.00  0.13  0.00  0.00  0.26  0.09  0.00
  c_907033                1.00   0.61  0.00  0.00  0.21  0.00  0.00  0.18  0.04  0.00
  c_907041                1.00   0.61  0.00  0.00  0.13  0.00  0.00  0.26  0.00  0.00
  c_907042                1.00   0.61  0.20  0.00  0.19  0.00  0.00  0.00  0.23  0.00
  c_907051                1.00   0.83  0.17  0.00  0.00  0.00  0.00  0.00  0.00  0.00
  c_907061                1.00   0.61  0.00  0.00  0.39  0.00  0.00  0.00  0.00  0.00
  c_907062                1.00   0.61  0.00  0.00  0.39  0.00  0.00  0.00  0.24  0.00
  c_907071                1.00   0.61  0.00  0.00  0.10  0.00  0.00  0.28  0.00  0.00
  c_907081                1.00   0.61  0.00  0.00  0.02  0.00  0.00  0.37  0.01  0.00
  c_907091                1.00   0.61  0.12  0.00  0.26  0.00  0.00  0.00  0.37  0.00
  c_907101                1.00   0.74  0.05  0.00  0.22  0.00  0.00  0.00  0.37  0.00
  c_907241                1.00   0.61  0.00  0.00  0.39  0.00  0.00  0.00  0.00  0.00
  c_907242                1.00   0.61  0.00  0.00  0.39  0.00  0.00  0.00  0.00  0.00
  c_907251                1.00   0.61  0.00  0.00  0.21  0.00  0.00  0.17  0.37  0.00
  c_907261                1.00   0.61  0.20  0.00  0.19  0.00  0.00  0.00  0.37  0.00
  c_907271                1.00   0.81  0.01  0.00  0.18  0.00  0.00  0.00  0.37  0.00
  c_907281                1.00   0.76  0.24  0.00  0.00  0.00  0.00  0.00  0.00  0.00
  c_907291                1.00   0.76  0.03  0.00  0.21  0.00  0.00  0.00  0.38  0.00
  c_907301                1.00   0.74  0.01  0.00  0.24  0.00  0.00  0.00  0.38  0.00
  c_907311                1.00   0.74  0.02  0.00  0.23  0.00  0.00  0.00  0.37  0.00
  c_907321                1.00   0.77  0.05  0.00  0.19  0.00  0.00  0.00  0.38  0.00
  c_907331                1.00   0.61  0.13  0.00  0.26  0.00  0.00  0.00  0.33  0.00
  c_907332                1.00   0.61  0.00  0.00  0.21  0.00  0.00  0.18  0.04  0.00
  c_912721                1.00   1.00  0.00  0.00  0.00  0.00  0.00  0.00  0.00  0.00
  c_912731                1.00   1.00  0.00  0.00  0.00  0.00  0.00  0.00  0.00  0.00
  c_912741                1.00   1.00  0.00  0.00  0.00  0.00  0.00  0.00  0.00  0.00
  c_912751                1.00   1.00  0.00  0.00  0.00  0.00  0.00  0.00  0.00  0.00
  c_912761                1.00   1.00  0.00  0.00  0.00  0.00  0.00  0.00  0.00  0.00
  c_912771                1.00   1.00  0.00  0.00  0.00  0.00  0.00  0.00  0.00  0.00
  c_912781                1.00   1.00  0.00  0.00  0.00  0.00  0.00  0.00  0.00  0.00
  c_912791                1.00   1.00  0.00  0.00  0.00  0.00  0.00  0.00  0.00  0.00
  c_912931                1.00   1.00  0.00  0.00  0.00  0.00  0.00  0.00  0.00  0.00
  c_912932                1.00   1.00  0.00  0.00  0.00  0.00  0.00  0.00  0.00  0.00
  c_912941                1.00   1.00  0.00  0.00  0.00  0.00  0.00  0.00  0.00  0.00
  
  
  *************************
  Conduit Surcharge Summary
  *************************
  
  ----------------------------------------------------------------------------
                                                           Hours        Hours 
                         --------- Hours Full --------   Above Full   Capacity
  Conduit                Both Ends  Upstream  Dnstream   Normal Flow   Limited
  ----------------------------------------------------------------------------
  c_903642                    0.01      0.01      0.01      0.64         0.01
  c_904421                    0.01      0.01      0.01      0.72         0.01
  c_904951                    0.01      0.01      0.14      0.01         0.01
  c_904952                    0.53      0.53      0.66      0.01         0.01
  c_905571                    0.01      0.01      0.01      0.18         0.01
  c_905632                    0.01      0.01      0.01      3.58         0.01
  c_905741                    0.66      0.66      1.27      0.01         0.01
  c_905751                    0.85      0.85      2.65      0.01         0.01
  c_905861                    0.01      0.01      0.01      3.94         0.01
  c_905921                    0.06      0.06      0.24      0.01         0.01
  c_905931                    0.01      0.01      0.01      3.65         0.01
  c_905942                    0.08      0.08      0.24      1.85         0.01
  c_906201                    0.01      0.01      0.01      3.19         0.01
  c_906241                    0.11      0.11      0.64      0.01         0.01
  c_906261                    0.01      0.01      0.32      0.01         0.01
  c_906271                    0.32      0.32      0.39      0.01         0.01
  c_906651                    2.00      2.00      2.00      0.01         0.01
  c_906731                    0.09      0.10      0.09      0.01         0.01
  c_906741                    0.01      0.01      0.01      0.71         0.01
  c_906781                    0.01      0.01      0.22      0.01         0.01
  c_907061                    0.01      0.01      0.01      0.01         0.01
  c_907062                    0.01      0.01      0.06      0.01         0.01
  

  Analysis begun on:  Sun Jun 12 01:36:15 2022
  Analysis ended on:  Sun Jun 12 01:36:45 2022
  Total elapsed time: 00:00:30