
  EPA STORM WATER MANAGEMENT MODEL - VERSION 5.1 (Build 5.1.015)
  --------------------------------------------------------------

  WARNING 04: minimum elevation drop used for Conduit c_903642
  WARNING 04: minimum elevation drop used for Conduit c_903651
  WARNING 04: minimum elevation drop used for Conduit c_903672
  WARNING 04: minimum elevation drop used for Conduit c_905571
  WARNING 04: minimum elevation drop used for Conduit c_905632
  WARNING 04: minimum elevation drop used for Conduit c_905821
  WARNING 04: minimum elevation drop used for Conduit c_905861
  WARNING 04: minimum elevation drop used for Conduit c_905931
  WARNING 04: minimum elevation drop used for Conduit c_906201
  WARNING 04: minimum elevation drop used for Conduit c_906322
  WARNING 04: minimum elevation drop used for Conduit c_906631
  WARNING 04: minimum elevation drop used for Conduit c_906641
  WARNING 04: minimum elevation drop used for Conduit c_906651
  WARNING 04: minimum elevation drop used for Conduit c_906731
  WARNING 04: minimum elevation drop used for Conduit c_906741
  WARNING 04: minimum elevation drop used for Conduit c_907242
  
  *********************
  Rainfall File Summary
  *********************
  Station    First        Last         Recording   Periods    Periods    Periods
  ID         Date         Date         Frequency  w/Precip    Missing    Malfunc.
  -------------------------------------------------------------------------------
  R1         01/07/2014   01/07/2014       5 min        75          0          0
  R1         01/07/2014   01/07/2014       5 min        75          0          0
  R1         01/07/2014   01/07/2014       5 min        75          0          0

  
  *********************************************************
  NOTE: The summary statistics displayed in this report are
  based on results found at every computational time step,  
  not just on results from each reporting time step.
  *********************************************************
  
  ****************
  Analysis Options
  ****************
  Flow Units ............... CMS
  Process Models:
    Rainfall/Runoff ........ YES
    RDII ................... NO
    Snowmelt ............... NO
    Groundwater ............ NO
    Flow Routing ........... YES
    Ponding Allowed ........ NO
    Water Quality .......... NO
  Infiltration Method ...... HORTON
  Flow Routing Method ...... DYNWAVE
  Surcharge Method ......... EXTRAN
  Starting Date ............ 01/07/2014 00:00:00
  Ending Date .............. 01/07/2014 23:10:00
  Antecedent Dry Days ...... 0.0
  Report Time Step ......... 00:05:00
  Wet Time Step ............ 00:01:00
  Dry Time Step ............ 00:10:00
  Routing Time Step ........ 1.00 sec
  Variable Time Step ....... YES
  Maximum Trials ........... 12
  Number of Threads ........ 2
  Head Tolerance ........... 0.000200 m
  
  
  **************************        Volume         Depth
  Runoff Quantity Continuity     hectare-m            mm
  **************************     ---------       -------
  Total Precipitation ......         0.194         7.000
  Evaporation Loss .........         0.005         0.191
  Infiltration Loss ........         0.018         0.634
  Surface Runoff ...........         0.082         2.951
  Final Storage ............         0.096         3.467
  Continuity Error (%) .....        -3.476
  
  
  **************************        Volume        Volume
  Flow Routing Continuity        hectare-m      10^6 ltr
  **************************     ---------     ---------
  Dry Weather Inflow .......         0.000         0.000
  Wet Weather Inflow .......         0.082         0.819
  Groundwater Inflow .......         0.000         0.000
  RDII Inflow ..............         0.000         0.000
  External Inflow ..........         0.000         0.000
  External Outflow .........         0.082         0.818
  Flooding Loss ............         0.000         0.000
  Evaporation Loss .........         0.000         0.000
  Exfiltration Loss ........         0.000         0.000
  Initial Stored Volume ....         0.000         0.000
  Final Stored Volume ......         0.001         0.006
  Continuity Error (%) .....        -0.617
  
  
  *************************
  Highest Continuity Errors
  *************************
  Node j_90368 (26.85%)
  Node j_90434 (9.82%)
  Node j_90705 (6.21%)
  Node j_90562 (4.81%)
  Node j_90388 (4.54%)
  
  
  ***************************
  Time-Step Critical Elements
  ***************************
  None
  
  
  ********************************
  Highest Flow Instability Indexes
  ********************************
  All links are stable.
  
  
  *************************
  Routing Time Step Summary
  *************************
  Minimum Time Step           :     0.36 sec
  Average Time Step           :     1.00 sec
  Maximum Time Step           :     1.00 sec
  Percent in Steady State     :     0.36
  Average Iterations per Step :     2.00
  Percent Not Converging      :     0.00
  Time Step Frequencies       :
      1.000 -  0.871 sec      :    99.76 %
      0.871 -  0.758 sec      :     0.24 %
      0.758 -  0.660 sec      :     0.00 %
      0.660 -  0.574 sec      :     0.00 %
      0.574 -  0.500 sec      :     0.00 %
  
  
  ***************************
  Subcatchment Runoff Summary
  ***************************
  
  ------------------------------------------------------------------------------------------------------------------------------
                            Total      Total      Total      Total     Imperv       Perv      Total       Total     Peak  Runoff
                           Precip      Runon       Evap      Infil     Runoff     Runoff     Runoff      Runoff   Runoff   Coeff
  Subcatchment                 mm         mm         mm         mm         mm         mm         mm    10^6 ltr      CMS
  ------------------------------------------------------------------------------------------------------------------------------
  sub_9006F                  7.00       0.00       0.20       0.53       0.72       1.91       2.63        0.00     0.00   0.376
  sub_90334                  7.00       0.00       0.11       1.39       0.13       5.05       5.18        0.01     0.01   0.740
  sub_90335                  7.00       0.00       0.22       0.32       0.86       1.16       2.02        0.00     0.01   0.289
  sub_90336                  7.00       0.00       0.15       1.07       0.35       3.89       4.24        0.00     0.00   0.605
  sub_90363                  7.00       0.00       0.22       0.32       0.86       1.17       2.03        0.00     0.01   0.290
  sub_90364                  7.00       0.00       0.14       1.18       0.27       4.28       4.56        0.00     0.00   0.651
  sub_90365                  7.00       0.00       0.09       1.58       0.00       5.74       5.74        0.00     0.00   0.821
  sub_90366                  7.00       0.00       0.20       0.53       0.71       1.94       2.65        0.00     0.00   0.379
  sub_90367                  7.00       0.00       0.16       0.90       0.46       3.27       3.73        0.00     0.00   0.533
  sub_90369                  7.00       0.00       0.19       0.64       0.64       2.34       2.98        0.00     0.01   0.425
  sub_90370                  7.00       0.00       0.21       0.43       0.78       1.57       2.36        0.00     0.00   0.336
  sub_90371                  7.00       0.00       0.23       0.23       0.92       0.82       1.74        0.00     0.00   0.249
  sub_90372                  7.00       0.00       0.15       1.00       0.40       3.63       4.02        0.00     0.00   0.575
  sub_90373                  7.00       0.00       0.25       0.07       1.03       0.25       1.28        0.00     0.00   0.183
  sub_90375                  7.00       0.00       0.22       0.32       0.86       1.15       2.01        0.00     0.00   0.287
  sub_90376                  7.00       0.00       0.20       0.56       0.69       2.05       2.74        0.00     0.00   0.392
  sub_90377                  7.00       0.00       0.22       0.33       0.85       1.21       2.06        0.00     0.00   0.295
  sub_90378                  7.00       0.00       0.21       0.45       0.77       1.62       2.39        0.00     0.00   0.342
  sub_90379                  7.00       0.00       0.18       0.75       0.57       2.72       3.29        0.00     0.00   0.470
  sub_90380                  7.00       0.00       0.19       0.68       0.61       2.47       3.09        0.00     0.00   0.441
  sub_90381                  7.00       0.00       0.19       0.69       0.61       2.50       3.11        0.00     0.00   0.444
  sub_90382                  7.00       0.00       0.20       0.57       0.69       2.08       2.76        0.00     0.00   0.395
  sub_90383                  7.00       0.00       0.21       0.49       0.74       1.77       2.52        0.00     0.00   0.360
  sub_90384                  7.00       0.00       0.16       0.93       0.44       3.39       3.83        0.00     0.00   0.548
  sub_90385                  7.00       0.00       0.21       0.41       0.79       1.50       2.30        0.00     0.00   0.328
  sub_90386                  7.00       0.00       0.18       0.75       0.56       2.75       3.31        0.00     0.00   0.473
  sub_90387                  7.00       0.00       0.20       0.59       0.67       2.14       2.82        0.00     0.00   0.403
  sub_90388                  7.00       0.00       0.20       0.58       0.68       2.12       2.80        0.00     0.00   0.400
  sub_90389                  7.00       0.00       0.19       0.65       0.64       2.35       2.99        0.00     0.00   0.427
  sub_90390                  7.00       0.00       0.17       0.81       0.52       2.96       3.48        0.00     0.00   0.497
  sub_90391                  7.00       0.00       0.09       1.58       0.00       5.74       5.74        0.00     0.00   0.821
  sub_90392                  7.00       0.00       0.15       1.01       0.39       3.67       4.06        0.00     0.00   0.580
  sub_90393                  7.00       0.00       0.15       1.00       0.40       3.63       4.02        0.01     0.00   0.575
  sub_90394                  7.00       0.00       0.16       0.95       0.43       3.45       3.88        0.00     0.00   0.554
  sub_90395                  7.00       0.00       0.22       0.37       0.83       1.33       2.16        0.00     0.00   0.309
  sub_90396                  7.00       0.00       0.26       0.00       1.08       0.00       1.08        0.00     0.00   0.154
  sub_90397                  7.00       0.00       0.17       0.85       0.50       3.10       3.60        0.00     0.00   0.514
  sub_90398                  7.00       0.00       0.16       0.89       0.47       3.24       3.71        0.00     0.00   0.529
  sub_90399                  7.00       0.00       0.20       0.50       0.74       1.81       2.55        0.00     0.00   0.364
  sub_90400                  7.00       0.00       0.20       0.59       0.67       2.15       2.83        0.00     0.00   0.404
  sub_90401                  7.00       0.00       0.22       0.35       0.84       1.27       2.11        0.00     0.00   0.301
  sub_90402                  7.00       0.00       0.22       0.37       0.82       1.34       2.17        0.00     0.00   0.310
  sub_90403                  7.00       0.00       0.19       0.60       0.67       2.17       2.84        0.00     0.00   0.406
  sub_90404                  7.00       0.00       0.19       0.63       0.65       2.28       2.93        0.00     0.00   0.419
  sub_90405                  7.00       0.00       0.19       0.69       0.61       2.50       3.11        0.00     0.00   0.444
  sub_90406                  7.00       0.00       0.17       0.83       0.51       3.03       3.54        0.00     0.00   0.506
  sub_90407                  7.00       0.00       0.17       0.82       0.52       2.97       3.49        0.00     0.00   0.499
  sub_90408                  7.00       0.00       0.20       0.52       0.72       1.90       2.62        0.00     0.00   0.375
  sub_90427                  7.00       0.00       0.19       0.61       0.66       2.23       2.89        0.00     0.01   0.413
  sub_90428                  7.00       0.00       0.18       0.74       0.57       2.71       3.28        0.00     0.00   0.468
  sub_90430                  7.00       0.00       0.22       0.35       0.83       1.29       2.12        0.00     0.00   0.303
  sub_90431                  7.00       0.00       0.20       0.57       0.69       2.08       2.77        0.00     0.00   0.395
  sub_90433                  7.00       0.00       0.17       0.79       0.54       2.87       3.41        0.00     0.00   0.487
  sub_90434                  7.00       0.00       0.23       0.28       0.88       1.03       1.91        0.00     0.00   0.273
  sub_90435                  7.00       0.00       0.20       0.50       0.73       1.82       2.56        0.00     0.00   0.366
  sub_90436                  7.00       0.00       0.23       0.25       0.90       0.92       1.82        0.00     0.00   0.260
  sub_90437                  7.00       0.00       0.22       0.40       0.80       1.45       2.25        0.00     0.00   0.322
  sub_90438                  7.00       0.00       0.20       0.56       0.69       2.05       2.74        0.00     0.00   0.391
  sub_90439                  7.00       0.00       0.20       0.57       0.69       2.07       2.76        0.00     0.00   0.394
  sub_90440                  7.00       0.00       0.19       0.64       0.64       2.34       2.98        0.00     0.00   0.426
  sub_90441                  7.00       0.00       0.15       1.05       0.36       3.83       4.19        0.00     0.00   0.598
  sub_90442                  7.00       0.00       0.13       1.24       0.23       4.50       4.73        0.01     0.01   0.676
  sub_90443                  7.00       0.00       0.16       0.92       0.45       3.35       3.80        0.01     0.01   0.543
  sub_90444                  7.00       0.00       0.21       0.44       0.77       1.61       2.39        0.00     0.00   0.341
  sub_90445                  7.00       0.00       0.18       0.78       0.55       2.83       3.38        0.00     0.00   0.483
  sub_90446                  7.00       0.00       0.21       0.47       0.75       1.72       2.47        0.00     0.00   0.353
  sub_90447                  7.00       0.00       0.18       0.73       0.58       2.67       3.25        0.00     0.00   0.464
  sub_90448                  7.00       0.00       0.19       0.68       0.61       2.48       3.09        0.00     0.00   0.442
  sub_90449                  7.00       0.00       0.19       0.64       0.64       2.34       2.98        0.00     0.00   0.425
  sub_90450                  7.00       0.00       0.20       0.54       0.71       1.98       2.69        0.00     0.00   0.384
  sub_90451                  7.00       0.00       0.19       0.69       0.60       2.52       3.12        0.00     0.00   0.446
  sub_90452                  7.00       0.00       0.16       0.89       0.47       3.23       3.70        0.00     0.00   0.529
  sub_90453                  7.00       0.00       0.21       0.46       0.77       1.66       2.43        0.00     0.00   0.347
  sub_90454                  7.00       0.00       0.19       0.61       0.66       2.24       2.89        0.00     0.00   0.413
  sub_90455                  7.00       0.00       0.22       0.34       0.85       1.23       2.08        0.00     0.00   0.297
  sub_90456                  7.00       0.00       0.16       0.92       0.45       3.33       3.78        0.01     0.00   0.541
  sub_90457                  7.00       0.00       0.16       0.90       0.46       3.28       3.74        0.01     0.01   0.534
  sub_90459                  7.00       0.00       0.14       1.09       0.33       3.98       4.31        0.01     0.01   0.615
  sub_90460                  7.00       0.00       0.11       1.46       0.08       5.33       5.41        0.00     0.00   0.772
  sub_90461                  7.00       0.00       0.20       0.53       0.72       1.91       2.63        0.00     0.00   0.376
  sub_90462                  7.00       0.00       0.18       0.74       0.57       2.70       3.27        0.00     0.00   0.467
  sub_90463                  7.00       0.00       0.22       0.38       0.82       1.39       2.20        0.00     0.00   0.315
  sub_90464                  7.00       0.00       0.19       0.63       0.64       2.31       2.95        0.00     0.00   0.422
  sub_90465                  7.00       0.00       0.22       0.34       0.85       1.23       2.08        0.00     0.00   0.297
  sub_90466                  7.00       0.00       0.20       0.59       0.67       2.15       2.83        0.00     0.00   0.404
  sub_90467                  7.00       0.00       0.23       0.29       0.88       1.05       1.93        0.00     0.01   0.276
  sub_90468                  7.00       0.00       0.20       0.56       0.69       2.04       2.74        0.00     0.00   0.391
  sub_90469                  7.00       0.00       0.22       0.34       0.85       1.23       2.08        0.00     0.00   0.297
  sub_90470                  7.00       0.00       0.20       0.58       0.68       2.11       2.79        0.00     0.00   0.399
  sub_90471                  7.00       0.00       0.21       0.48       0.75       1.75       2.50        0.00     0.00   0.357
  sub_90477                  7.00       0.00       0.22       0.33       0.85       1.20       2.05        0.00     0.00   0.293
  sub_90478                  7.00       0.00       0.22       0.38       0.82       1.39       2.20        0.00     0.00   0.315
  sub_90479                  7.00       0.00       0.16       0.90       0.46       3.29       3.75        0.00     0.00   0.536
  sub_90480                  7.00       0.00       0.21       0.45       0.77       1.62       2.39        0.00     0.00   0.342
  sub_90481                  7.00       0.00       0.20       0.56       0.69       2.06       2.75        0.00     0.00   0.392
  sub_90482                  7.00       0.00       0.20       0.59       0.68       2.14       2.82        0.00     0.00   0.402
  sub_90483                  7.00       0.00       0.13       1.18       0.27       4.31       4.58        0.00     0.00   0.654
  sub_90484                  7.00       0.00       0.21       0.49       0.74       1.79       2.53        0.00     0.00   0.362
  sub_90485                  7.00       0.00       0.16       0.89       0.47       3.24       3.71        0.01     0.00   0.529
  sub_90486                  7.00       0.00       0.19       0.66       0.63       2.40       3.03        0.00     0.00   0.432
  sub_90487                  7.00       0.00       0.20       0.56       0.69       2.06       2.75        0.01     0.01   0.392
  sub_90488                  7.00       0.00       0.19       0.69       0.61       2.51       3.12        0.00     0.00   0.445
  sub_90489                  7.00       0.00       0.22       0.35       0.84       1.27       2.11        0.00     0.00   0.301
  sub_90490                  7.00       0.00       0.22       0.31       0.86       1.14       2.00        0.00     0.00   0.286
  sub_90491                  7.00       0.00       0.22       0.37       0.83       1.34       2.16        0.00     0.00   0.309
  sub_90492                  7.00       0.00       0.21       0.49       0.74       1.80       2.54        0.00     0.00   0.363
  sub_90493                  7.00       0.00       0.22       0.34       0.85       1.23       2.07        0.00     0.00   0.296
  sub_90494                  7.00       0.00       0.22       0.32       0.86       1.17       2.03        0.00     0.00   0.290
  sub_90495                  7.00       0.00       0.20       0.50       0.73       1.84       2.57        0.00     0.00   0.367
  sub_90496                  7.00       0.00       0.22       0.34       0.85       1.23       2.07        0.00     0.00   0.296
  sub_90497                  7.00       0.00       0.23       0.30       0.87       1.10       1.97        0.00     0.00   0.281
  sub_90498                  7.00       0.00       0.20       0.57       0.69       2.07       2.76        0.00     0.01   0.394
  sub_90499                  7.00       0.00       0.15       0.99       0.40       3.61       4.01        0.01     0.00   0.572
  sub_90500                  7.00       0.00       0.18       0.73       0.58       2.64       3.22        0.00     0.00   0.461
  sub_90501                  7.00       0.00       0.22       0.32       0.86       1.16       2.02        0.00     0.00   0.288
  sub_90502                  7.00       0.00       0.19       0.62       0.65       2.27       2.92        0.00     0.00   0.418
  sub_90503                  7.00       0.00       0.22       0.35       0.84       1.28       2.11        0.00     0.00   0.302
  sub_90504                  7.00       0.00       0.22       0.33       0.85       1.19       2.04        0.00     0.00   0.291
  sub_90505                  7.00       0.00       0.22       0.38       0.82       1.39       2.21        0.00     0.00   0.315
  sub_90506                  7.00       0.00       0.21       0.42       0.79       1.52       2.31        0.00     0.00   0.330
  sub_90507                  7.00       0.00       0.21       0.44       0.78       1.59       2.37        0.00     0.00   0.338
  sub_90508                  7.00       0.00       0.21       0.42       0.79       1.54       2.33        0.00     0.00   0.333
  sub_90509                  7.00       0.00       0.17       0.87       0.48       3.18       3.66        0.00     0.00   0.523
  sub_90510                  7.00       0.00       0.22       0.39       0.81       1.44       2.24        0.00     0.00   0.320
  sub_90511                  7.00       0.00       0.19       0.68       0.62       2.46       3.08        0.00     0.00   0.440
  sub_90512                  7.00       0.00       0.21       0.45       0.77       1.63       2.40        0.00     0.00   0.343
  sub_90513                  7.00       0.00       0.22       0.31       0.87       1.12       1.98        0.00     0.01   0.284
  sub_90514                  7.00       0.00       0.21       0.41       0.80       1.49       2.28        0.00     0.00   0.326
  sub_90515                  7.00       0.00       0.18       0.72       0.59       2.61       3.19        0.00     0.00   0.456
  sub_90516                  7.00       0.00       0.15       1.00       0.39       3.64       4.03        0.00     0.00   0.576
  sub_90517                  7.00       0.00       0.18       0.72       0.58       2.63       3.22        0.00     0.00   0.459
  sub_90518                  7.00       0.00       0.23       0.22       0.93       0.79       1.72        0.00     0.00   0.245
  sub_90519                  7.00       0.00       0.17       0.80       0.53       2.93       3.45        0.01     0.01   0.494
  sub_90520                  7.00       0.00       0.18       0.78       0.54       2.85       3.39        0.00     0.00   0.484
  sub_90521                  7.00       0.00       0.21       0.46       0.76       1.68       2.44        0.00     0.00   0.349
  sub_90522                  7.00       0.00       0.22       0.37       0.82       1.34       2.17        0.00     0.00   0.310
  sub_90523                  7.00       0.00       0.21       0.46       0.76       1.67       2.43        0.00     0.00   0.347
  sub_90524                  7.00       0.00       0.18       0.77       0.55       2.80       3.35        0.01     0.01   0.479
  sub_90525                  7.00       0.00       0.16       0.97       0.41       3.53       3.95        0.01     0.01   0.564
  sub_90526                  7.00       0.00       0.18       0.78       0.55       2.84       3.38        0.00     0.00   0.483
  sub_90527                  7.00       0.00       0.15       1.01       0.39       3.66       4.05        0.00     0.00   0.579
  sub_90549                  7.00       0.00       0.18       0.73       0.58       2.66       3.24        0.00     0.00   0.462
  sub_90550                  7.00       0.00       0.26       0.00       1.08       0.00       1.08        0.00     0.00   0.154
  sub_90551                  7.00       0.00       0.17       0.85       0.49       3.11       3.60        0.00     0.00   0.514
  sub_90552                  7.00       0.00       0.22       0.35       0.84       1.27       2.11        0.01     0.01   0.301
  sub_90553                  7.00       0.00       0.17       0.82       0.52       2.98       3.50        0.00     0.00   0.500
  sub_90554                  7.00       0.00       0.18       0.78       0.55       2.83       3.38        0.00     0.00   0.483
  sub_90555                  7.00       0.00       0.16       0.95       0.43       3.46       3.89        0.00     0.00   0.555
  sub_90556                  7.00       0.00       0.15       1.04       0.37       3.79       4.16        0.01     0.01   0.594
  sub_90557                  7.00       0.00       0.20       0.54       0.71       1.95       2.66        0.00     0.00   0.380
  sub_90558                  7.00       0.00       0.20       0.54       0.71       1.97       2.68        0.00     0.01   0.383
  sub_90559                  7.00       0.00       0.17       0.85       0.50       3.09       3.59        0.00     0.00   0.513
  sub_90560                  7.00       0.00       0.18       0.70       0.60       2.55       3.15        0.01     0.01   0.450
  sub_90561                  7.00       0.00       0.19       0.62       0.65       2.27       2.92        0.00     0.00   0.417
  sub_90562                  7.00       0.00       0.20       0.58       0.68       2.10       2.78        0.00     0.00   0.398
  sub_90563                  7.00       0.00       0.20       0.55       0.70       1.98       2.69        0.00     0.00   0.384
  sub_90564                  7.00       0.00       0.21       0.47       0.75       1.72       2.47        0.00     0.00   0.353
  sub_90565                  7.00       0.00       0.19       0.67       0.62       2.45       3.06        0.00     0.00   0.438
  sub_90566                  7.00       0.00       0.19       0.69       0.61       2.51       3.12        0.00     0.00   0.445
  sub_90567                  7.00       0.00       0.17       0.82       0.52       2.99       3.50        0.00     0.00   0.500
  sub_90568                  7.00       0.00       0.26       0.00       1.08       0.00       1.08        0.00     0.00   0.154
  sub_90569                  7.00       0.00       0.18       0.76       0.56       2.75       3.31        0.00     0.00   0.473
  sub_90570                  7.00       0.00       0.16       0.90       0.46       3.28       3.74        0.00     0.00   0.535
  sub_90571                  7.00       0.00       0.21       0.48       0.75       1.76       2.51        0.00     0.00   0.358
  sub_90572                  7.00       0.00       0.21       0.48       0.75       1.75       2.50        0.00     0.00   0.357
  sub_90573                  7.00       0.00       0.22       0.32       0.86       1.17       2.03        0.00     0.00   0.290
  sub_90574                  7.00       0.00       0.22       0.37       0.83       1.33       2.16        0.00     0.00   0.308
  sub_90575                  7.00       0.00       0.19       0.60       0.67       2.18       2.85        0.00     0.00   0.407
  sub_90576                  7.00       0.00       0.19       0.65       0.63       2.37       3.00        0.00     0.00   0.429
  sub_90577                  7.00       0.00       0.19       0.63       0.65       2.30       2.94        0.00     0.00   0.420
  sub_90578                  7.00       0.00       0.20       0.55       0.70       2.00       2.70        0.00     0.00   0.386
  sub_90579                  7.00       0.00       0.21       0.46       0.76       1.68       2.44        0.00     0.00   0.348
  sub_90580                  7.00       0.00       0.16       0.96       0.42       3.48       3.91        0.00     0.00   0.558
  sub_90581                  7.00       0.00       0.18       0.77       0.55       2.81       3.36        0.00     0.00   0.480
  sub_90582                  7.00       0.00       0.19       0.61       0.66       2.20       2.87        0.00     0.00   0.410
  sub_90583                  7.00       0.00       0.18       0.76       0.56       2.75       3.31        0.00     0.00   0.474
  sub_90584                  7.00       0.00       0.21       0.42       0.79       1.54       2.33        0.00     0.00   0.333
  sub_90585                  7.00       0.00       0.21       0.42       0.79       1.54       2.33        0.00     0.00   0.332
  sub_90586                  7.00       0.00       0.21       0.47       0.76       1.69       2.45        0.00     0.00   0.350
  sub_90587                  7.00       0.00       0.20       0.51       0.73       1.87       2.59        0.00     0.00   0.370
  sub_90588                  7.00       0.00       0.22       0.35       0.84       1.28       2.12        0.00     0.00   0.303
  sub_90589                  7.00       0.00       0.20       0.58       0.68       2.10       2.78        0.00     0.00   0.398
  sub_90590                  7.00       0.00       0.20       0.56       0.70       2.02       2.72        0.00     0.00   0.388
  sub_90591                  7.00       0.00       0.22       0.38       0.82       1.38       2.19        0.00     0.00   0.314
  sub_90592                  7.00       0.00       0.22       0.37       0.83       1.33       2.16        0.00     0.00   0.309
  sub_90593                  7.00       0.00       0.21       0.50       0.74       1.81       2.54        0.00     0.00   0.364
  sub_90594                  7.00       0.00       0.19       0.61       0.66       2.23       2.89        0.00     0.00   0.413
  sub_90595                  7.00       0.00       0.19       0.62       0.65       2.25       2.90        0.00     0.00   0.415
  sub_90596                  7.00       0.00       0.22       0.35       0.84       1.28       2.11        0.00     0.00   0.302
  sub_90597                  7.00       0.00       0.17       0.82       0.52       2.99       3.51        0.00     0.00   0.501
  sub_90598                  7.00       0.00       0.17       0.82       0.52       2.97       3.49        0.00     0.00   0.499
  sub_90599                  7.00       0.00       0.19       0.60       0.67       2.18       2.85        0.00     0.00   0.407
  sub_90600                  7.00       0.00       0.20       0.55       0.70       1.98       2.69        0.00     0.00   0.384
  sub_90601                  7.00       0.00       0.16       0.91       0.46       3.31       3.77        0.00     0.00   0.538
  sub_90602                  7.00       0.00       0.19       0.68       0.62       2.46       3.08        0.00     0.00   0.440
  sub_90603                  7.00       0.00       0.17       0.86       0.49       3.13       3.62        0.00     0.00   0.517
  sub_90604                  7.00       0.00       0.20       0.57       0.68       2.09       2.77        0.00     0.00   0.396
  sub_90605                  7.00       0.00       0.20       0.56       0.69       2.06       2.75        0.00     0.01   0.392
  sub_90606                  7.00       0.00       0.19       0.63       0.64       2.31       2.95        0.00     0.00   0.422
  sub_90607                  7.00       0.00       0.19       0.66       0.63       2.40       3.03        0.00     0.00   0.432
  sub_90608                  7.00       0.00       0.17       0.79       0.54       2.87       3.41        0.00     0.00   0.487
  sub_90609                  7.00       0.00       0.16       0.93       0.44       3.37       3.82        0.00     0.00   0.545
  sub_90610                  7.00       0.00       0.16       0.90       0.46       3.27       3.73        0.00     0.00   0.533
  sub_90611                  7.00       0.00       0.17       0.80       0.53       2.92       3.45        0.00     0.00   0.493
  sub_90612                  7.00       0.00       0.16       0.91       0.46       3.30       3.76        0.00     0.00   0.537
  sub_90613                  7.00       0.00       0.16       0.97       0.42       3.52       3.94        0.00     0.00   0.562
  sub_90615                  7.00       0.00       0.17       0.82       0.51       3.00       3.51        0.01     0.01   0.502
  sub_90616                  7.00       0.00       0.21       0.42       0.79       1.53       2.32        0.00     0.01   0.332
  sub_90617                  7.00       0.00       0.20       0.55       0.70       1.99       2.69        0.00     0.00   0.384
  sub_90618                  7.00       0.00       0.22       0.35       0.84       1.28       2.12        0.00     0.01   0.302
  sub_90619                  7.00       0.00       0.25       0.06       1.04       0.21       1.24        0.00     0.00   0.178
  sub_90620                  7.00       0.00       0.22       0.37       0.82       1.35       2.17        0.00     0.00   0.310
  sub_90621                  7.00       0.00       0.18       0.78       0.54       2.85       3.39        0.01     0.01   0.484
  sub_90623                  7.00       0.00       0.19       0.67       0.62       2.43       3.05        0.01     0.01   0.436
  sub_90624                  7.00       0.00       0.19       0.65       0.64       2.35       2.99        0.00     0.00   0.427
  sub_90625                  7.00       0.00       0.20       0.55       0.70       2.00       2.70        0.00     0.00   0.386
  sub_90626                  7.00       0.00       0.21       0.49       0.74       1.79       2.53        0.00     0.00   0.361
  sub_90627                  7.00       0.00       0.17       0.87       0.48       3.17       3.65        0.00     0.00   0.521
  sub_90628                  7.00       0.00       0.18       0.71       0.59       2.59       3.18        0.01     0.01   0.455
  sub_90629                  7.00       0.00       0.17       0.83       0.51       3.01       3.52        0.01     0.00   0.503
  sub_90630                  7.00       0.00       0.22       0.35       0.84       1.27       2.11        0.00     0.00   0.301
  sub_90631                  7.00       0.00       0.20       0.55       0.70       1.99       2.69        0.00     0.00   0.384
  sub_90632                  7.00       0.00       0.20       0.56       0.69       2.06       2.75        0.00     0.00   0.392
  sub_90633                  7.00       0.00       0.22       0.35       0.84       1.26       2.10        0.00     0.00   0.300
  sub_90634                  7.00       0.00       0.20       0.53       0.72       1.91       2.63        0.00     0.00   0.376
  sub_90635                  7.00       0.00       0.18       0.77       0.55       2.80       3.35        0.00     0.00   0.479
  sub_90636                  7.00       0.00       0.20       0.58       0.68       2.12       2.80        0.00     0.00   0.400
  sub_90637                  7.00       0.00       0.20       0.54       0.71       1.97       2.68        0.00     0.00   0.382
  sub_90638                  7.00       0.00       0.22       0.32       0.86       1.15       2.01        0.00     0.01   0.287
  sub_90639                  7.00       0.00       0.17       0.82       0.51       3.00       3.52        0.00     0.00   0.502
  sub_90640                  7.00       0.00       0.21       0.41       0.79       1.51       2.30        0.00     0.00   0.329
  sub_90641                  7.00       0.00       0.20       0.51       0.73       1.85       2.58        0.00     0.00   0.369
  sub_90642                  7.00       0.00       0.19       0.64       0.64       2.34       2.98        0.00     0.00   0.425
  sub_90643                  7.00       0.00       0.21       0.41       0.80       1.50       2.30        0.00     0.01   0.328
  sub_90644                  7.00       0.00       0.22       0.36       0.83       1.30       2.13        0.00     0.00   0.304
  sub_90645                  7.00       0.00       0.20       0.50       0.73       1.84       2.57        0.00     0.00   0.367
  sub_90646                  7.00       0.00       0.16       0.95       0.43       3.45       3.88        0.00     0.00   0.554
  sub_90647                  7.00       0.00       0.12       1.30       0.19       4.74       4.93        0.01     0.00   0.704
  sub_90648                  7.00       0.00       0.22       0.34       0.84       1.25       2.09        0.00     0.00   0.299
  sub_90649                  7.00       0.00       0.20       0.51       0.73       1.84       2.57        0.00     0.00   0.367
  sub_90650                  7.00       0.00       0.21       0.50       0.74       1.81       2.55        0.01     0.01   0.364
  sub_90651                  7.00       0.00       0.21       0.41       0.80       1.49       2.29        0.00     0.00   0.327
  sub_90652                  7.00       0.00       0.20       0.52       0.72       1.89       2.61        0.00     0.00   0.373
  sub_90653                  7.00       0.00       0.19       0.63       0.65       2.30       2.94        0.00     0.00   0.420
  sub_90654                  7.00       0.00       0.18       0.72       0.58       2.63       3.22        0.00     0.00   0.459
  sub_90655                  7.00       0.00       0.21       0.47       0.76       1.71       2.46        0.00     0.00   0.352
  sub_90656                  7.00       0.00       0.17       0.83       0.51       3.03       3.54        0.00     0.00   0.506
  sub_90657                  7.00       0.00       0.17       0.88       0.48       3.19       3.67        0.00     0.00   0.524
  sub_90658                  7.00       0.00       0.20       0.50       0.74       1.82       2.55        0.00     0.00   0.365
  sub_90659                  7.00       0.00       0.14       1.14       0.30       4.16       4.46        0.00     0.00   0.637
  sub_90662                  7.00       0.00       0.20       0.58       0.68       2.13       2.81        0.00     0.00   0.401
  sub_90663                  7.00       0.00       0.17       0.80       0.53       2.91       3.44        0.01     0.01   0.491
  sub_90664                  7.00       0.00       0.09       1.58       0.00       5.74       5.74        0.00     0.00   0.821
  sub_90665                  7.00       0.00       0.18       0.74       0.57       2.68       3.26        0.00     0.00   0.465
  sub_90669                  7.00       0.00       0.19       0.60       0.67       2.17       2.84        0.00     0.00   0.406
  sub_90670                  7.00       0.00       0.21       0.44       0.78       1.59       2.37        0.00     0.00   0.338
  sub_90671                  7.00       0.00       0.21       0.48       0.75       1.75       2.50        0.00     0.00   0.357
  sub_90672                  7.00       0.00       0.19       0.64       0.64       2.32       2.96        0.00     0.00   0.423
  sub_90673                  7.00       0.00       0.17       0.81       0.52       2.96       3.48        0.00     0.00   0.497
  sub_90674                  7.00       0.00       0.23       0.24       0.92       0.86       1.77        0.00     0.00   0.253
  sub_90675                  7.00       0.00       0.22       0.36       0.83       1.31       2.14        0.00     0.00   0.306
  sub_90676                  7.00       0.00       0.20       0.53       0.71       1.93       2.65        0.00     0.00   0.378
  sub_90677                  7.00       0.00       0.18       0.78       0.55       2.82       3.37        0.00     0.00   0.481
  sub_90678                  7.00       0.00       0.18       0.69       0.60       2.53       3.13        0.00     0.00   0.447
  sub_90679                  7.00       0.00       0.18       0.76       0.56       2.78       3.33        0.01     0.01   0.476
  sub_90680                  7.00       0.00       0.21       0.44       0.78       1.60       2.37        0.00     0.00   0.339
  sub_90681                  7.00       0.00       0.18       0.78       0.55       2.82       3.37        0.00     0.00   0.482
  sub_90682                  7.00       0.00       0.18       0.70       0.60       2.54       3.14        0.00     0.00   0.449
  sub_90683                  7.00       0.00       0.14       1.15       0.29       4.19       4.48        0.00     0.00   0.641
  sub_90684                  7.00       0.00       0.23       0.26       0.90       0.94       1.84        0.00     0.00   0.262
  sub_90685                  7.00       0.00       0.24       0.19       0.95       0.68       1.63        0.00     0.00   0.233
  sub_90686                  7.00       0.00       0.18       0.69       0.60       2.53       3.13        0.00     0.00   0.447
  sub_90688                  7.00       0.00       0.20       0.53       0.72       1.91       2.63        0.00     0.00   0.376
  sub_90689                  7.00       0.00       0.17       0.84       0.50       3.06       3.57        0.00     0.00   0.509
  sub_90690                  7.00       0.00       0.19       0.66       0.63       2.40       3.03        0.00     0.00   0.433
  sub_90691                  7.00       0.00       0.20       0.57       0.69       2.06       2.75        0.00     0.00   0.393
  sub_90692                  7.00       0.00       0.21       0.49       0.74       1.79       2.53        0.00     0.00   0.361
  sub_90693                  7.00       0.00       0.16       0.93       0.44       3.38       3.82        0.00     0.00   0.546
  sub_90694                  7.00       0.00       0.13       1.27       0.21       4.63       4.84        0.00     0.00   0.691
  sub_90695                  7.00       0.00       0.18       0.71       0.59       2.58       3.18        0.00     0.00   0.454
  sub_90696                  7.00       0.00       0.17       0.79       0.54       2.87       3.41        0.00     0.00   0.487
  sub_90697                  7.00       0.00       0.17       0.81       0.52       2.95       3.48        0.00     0.00   0.497
  sub_90698                  7.00       0.00       0.16       0.92       0.45       3.34       3.79        0.00     0.00   0.541
  sub_90699                  7.00       0.00       0.14       1.09       0.33       3.96       4.30        0.00     0.00   0.614
  sub_90700                  7.00       0.00       0.23       0.30       0.87       1.09       1.97        0.00     0.00   0.281
  sub_90701                  7.00       0.00       0.23       0.28       0.89       1.01       1.90        0.00     0.00   0.271
  sub_90702                  7.00       0.00       0.22       0.32       0.86       1.15       2.01        0.00     0.00   0.287
  sub_90703                  7.00       0.00       0.17       0.81       0.52       2.95       3.47        0.00     0.00   0.496
  sub_90704                  7.00       0.00       0.18       0.78       0.54       2.84       3.38        0.00     0.00   0.483
  sub_90705                  7.00       0.00       0.17       0.84       0.50       3.07       3.57        0.00     0.00   0.510
  sub_90706                  7.00       0.00       0.20       0.58       0.68       2.10       2.78        0.00     0.00   0.398
  sub_90707                  7.00       0.00       0.22       0.38       0.81       1.40       2.21        0.00     0.00   0.316
  sub_90708                  7.00       0.00       0.16       0.94       0.44       3.41       3.85        0.01     0.00   0.550
  sub_90709                  7.00       0.00       0.18       0.69       0.60       2.53       3.13        0.00     0.00   0.447
  sub_90710                  7.00       0.00       0.16       0.91       0.46       3.30       3.76        0.01     0.01   0.537
  sub_90724                  7.00       0.00       0.16       0.95       0.43       3.45       3.88        0.00     0.00   0.554
  sub_90725                  7.00       0.00       0.09       1.58       0.00       5.74       5.74        0.00     0.00   0.821
  sub_90726                  7.00       0.00       0.09       1.58       0.00       5.74       5.74        0.00     0.00   0.821
  sub_90727                  7.00       0.00       0.09       1.58       0.00       5.74       5.74        0.00     0.00   0.821
  sub_90728                  7.00       0.00       0.09       1.58       0.00       5.74       5.74        0.00     0.00   0.821
  sub_90729                  7.00       0.00       0.09       1.58       0.00       5.74       5.74        0.00     0.00   0.821
  sub_90730                  7.00       0.00       0.09       1.58       0.00       5.74       5.74        0.00     0.00   0.821
  sub_90731                  7.00       0.00       0.09       1.58       0.00       5.74       5.74        0.00     0.00   0.821
  sub_90732                  7.00       0.00       0.09       1.58       0.00       5.74       5.74        0.00     0.00   0.821
  sub_90733                  7.00       0.00       0.21       0.46       0.76       1.69       2.45        0.00     0.00   0.350
  
  
  ******************
  Node Depth Summary
  ******************
  
  ---------------------------------------------------------------------------------
                                 Average  Maximum  Maximum  Time of Max    Reported
                                   Depth    Depth      HGL   Occurrence   Max Depth
  Node                 Type       Meters   Meters   Meters  days hr:min      Meters
  ---------------------------------------------------------------------------------
  j_9006F              JUNCTION     0.00     0.12    -0.24     0  18:12        0.11
  j_90334              JUNCTION     0.00     0.10    -0.11     0  17:14        0.09
  j_90335              JUNCTION     0.00     0.11    -0.30     0  18:10        0.11
  j_90336              JUNCTION     0.00     0.13    -0.04     0  18:10        0.13
  j_90363              JUNCTION     0.02     0.17    -0.18     0  18:09        0.17
  j_90364              JUNCTION     0.02     0.17    -0.18     0  18:10        0.17
  j_90365              JUNCTION     0.02     0.17    -0.18     0  18:09        0.17
  j_90366              JUNCTION     0.00     0.06    -0.25     0  18:10        0.06
  j_90367              JUNCTION     0.01     0.21    -0.28     0  18:10        0.20
  j_90368              JUNCTION     0.00     0.01    -0.28     0  18:10        0.00
  j_90369              JUNCTION     0.00     0.06    -0.24     0  18:09        0.06
  j_90370              JUNCTION     0.01     0.21    -0.30     0  18:10        0.21
  j_90371              JUNCTION     0.01     0.25    -0.31     0  18:10        0.25
  j_90372              JUNCTION     0.00     0.03    -0.22     0  17:15        0.03
  j_90373              JUNCTION     0.00     0.17    -0.30     0  18:10        0.16
  j_90374              JUNCTION     0.00     0.02    -0.26     0  18:10        0.01
  j_90375              JUNCTION     0.00     0.07    -0.27     0  18:10        0.07
  j_90376              JUNCTION     0.00     0.05    -0.10     0  18:07        0.05
  j_90377              JUNCTION     0.00     0.04    -0.13     0  18:10        0.04
  j_90378              JUNCTION     0.00     0.11    -0.29     0  18:10        0.11
  j_90379              JUNCTION     0.00     0.07    -0.18     0  18:10        0.07
  j_90380              JUNCTION     0.00     0.08    -0.25     0  18:10        0.08
  j_90381              JUNCTION     0.01     0.14    -0.31     0  18:10        0.14
  j_90382              JUNCTION     0.01     0.34    -0.58     0  18:11        0.32
  j_90383              JUNCTION     0.01     0.30    -0.52     0  18:11        0.28
  j_90384              JUNCTION     0.02     0.17    -0.29     0  18:10        0.17
  j_90385              JUNCTION     0.00     0.08    -0.29     0  18:09        0.08
  j_90386              JUNCTION     0.00     0.07    -0.16     0  18:10        0.07
  j_90387              JUNCTION     0.00     0.05    -0.15     0  18:10        0.05
  j_90388              JUNCTION     0.01     0.13    -0.26     0  18:10        0.13
  j_90389              JUNCTION     0.01     0.24    -0.37     0  18:10        0.24
  j_90390              JUNCTION     0.01     0.24    -0.33     0  18:10        0.23
  j_90391              JUNCTION     0.01     0.16    -0.08     0  18:10        0.16
  j_90392              JUNCTION     0.01     0.18    -0.07     0  18:10        0.18
  j_90393              JUNCTION     0.00     0.14    -0.05     0  18:10        0.14
  j_90394              JUNCTION     0.00     0.08    -0.02     0  18:10        0.08
  j_90395              JUNCTION     0.00     0.08    -0.00     0  18:10        0.08
  j_90396              JUNCTION     0.00     0.03     0.01     0  18:10        0.03
  j_90397              JUNCTION     0.01     0.31    -0.46     0  18:11        0.29
  j_90398              JUNCTION     0.00     0.16    -0.46     0  18:10        0.15
  j_90399              JUNCTION     0.00     0.07    -0.24     0  18:10        0.07
  j_90400              JUNCTION     0.00     0.04    -0.22     0  18:10        0.04
  j_90401              JUNCTION     0.00     0.07    -0.24     0  18:09        0.07
  j_90402              JUNCTION     0.00     0.07    -0.29     0  18:10        0.07
  j_90403              JUNCTION     0.00     0.03    -0.22     0  18:10        0.03
  j_90404              JUNCTION     0.00     0.07    -0.23     0  18:10        0.07
  j_90405              JUNCTION     0.00     0.12    -0.44     0  18:10        0.12
  j_90406              JUNCTION     0.00     0.11    -0.39     0  18:10        0.11
  j_90407              JUNCTION     0.00     0.05    -0.36     0  18:10        0.05
  j_90408              JUNCTION     0.00     0.08    -0.24     0  18:10        0.08
  j_90427              JUNCTION     0.00     0.20    -0.23     0  18:10        0.20
  j_90428              JUNCTION     0.00     0.15    -0.22     0  18:10        0.15
  j_90430              JUNCTION     0.00     0.08    -1.49     0  18:12        0.08
  j_90433              JUNCTION     0.00     0.10    -0.27     0  18:10        0.10
  j_90434              JUNCTION     0.02     0.16    -0.27     0  18:10        0.16
  j_90435              JUNCTION     0.00     0.08    -0.29     0  18:10        0.08
  j_90436              JUNCTION     0.00     0.15    -0.31     0  18:10        0.15
  j_90437              JUNCTION     0.01     0.38    -0.98     0  18:12        0.37
  j_90438              JUNCTION     0.02     0.46    -0.89     0  18:12        0.45
  j_90439              JUNCTION     0.00     0.07    -0.14     0  18:10        0.07
  j_90440              JUNCTION     0.00     0.06    -0.10     0  18:10        0.06
  j_90441              JUNCTION     0.00     0.04    -0.09     0  17:15        0.04
  j_90442              JUNCTION     0.02     0.34    -0.30     0  18:10        0.34
  j_90443              JUNCTION     0.02     0.47    -0.83     0  18:12        0.45
  j_90444              JUNCTION     0.01     0.31    -0.80     0  18:12        0.28
  j_90445              JUNCTION     0.00     0.11    -0.32     0  18:10        0.11
  j_90446              JUNCTION     0.00     0.09    -0.27     0  18:10        0.09
  j_90447              JUNCTION     0.00     0.07    -0.18     0  18:10        0.07
  j_90448              JUNCTION     0.00     0.07    -0.20     0  18:10        0.07
  j_90449              JUNCTION     0.01     0.11    -0.37     0  18:10        0.11
  j_90450              JUNCTION     0.00     0.08    -0.39     0  18:10        0.08
  j_90451              JUNCTION     0.01     0.30    -0.72     0  18:11        0.28
  j_90452              JUNCTION     0.00     0.09    -0.33     0  18:10        0.09
  j_90453              JUNCTION     0.01     0.33    -0.63     0  18:11        0.31
  j_90454              JUNCTION     0.00     0.10    -0.37     0  18:10        0.10
  j_90455              JUNCTION     0.01     0.12    -0.42     0  18:10        0.12
  j_90456              JUNCTION     0.01     0.18    -0.48     0  18:10        0.18
  j_90457              JUNCTION     0.01     0.23    -0.53     0  18:10        0.22
  j_90459              JUNCTION     0.01     0.24    -0.81     0  18:12        0.22
  j_90460              JUNCTION     0.00     0.19    -0.77     0  18:12        0.17
  j_90461              JUNCTION     0.02     0.31    -0.77     0  18:12        0.29
  j_90462              JUNCTION     0.01     0.28    -0.70     0  18:11        0.26
  j_90463              JUNCTION     0.00     0.15    -0.58     0  18:10        0.15
  j_90464              JUNCTION     0.00     0.13    -0.50     0  18:10        0.13
  j_90465              JUNCTION     0.00     0.11    -0.43     0  18:10        0.11
  j_90466              JUNCTION     0.00     0.09    -0.35     0  18:10        0.09
  j_90467              JUNCTION     0.00     0.12    -0.30     0  18:10        0.12
  j_90468              JUNCTION     0.00     0.18    -0.34     0  18:10        0.18
  j_90469              JUNCTION     0.00     0.15    -0.41     0  18:10        0.15
  j_90470              JUNCTION     0.00     0.19    -0.48     0  18:10        0.19
  j_90471              JUNCTION     0.00     0.17    -0.53     0  18:10        0.16
  j_90477              JUNCTION     0.00     0.08    -0.23     0  18:10        0.08
  j_90478              JUNCTION     0.00     0.14    -0.27     0  18:10        0.14
  j_90479              JUNCTION     0.00     0.05    -0.27     0  18:10        0.04
  j_90480              JUNCTION     0.00     0.06    -0.19     0  18:10        0.06
  j_90481              JUNCTION     0.00     0.16    -0.24     0  18:10        0.16
  j_90482              JUNCTION     0.00     0.18    -0.27     0  18:10        0.18
  j_90483              JUNCTION     0.00     0.10    -0.18     0  18:10        0.10
  j_90484              JUNCTION     0.00     0.06    -0.14     0  18:10        0.06
  j_90485              JUNCTION     0.00     0.10    -0.23     0  18:10        0.10
  j_90486              JUNCTION     0.01     0.23    -0.23     0  18:10        0.22
  j_90487              JUNCTION     0.01     0.26    -0.26     0  18:10        0.25
  j_90488              JUNCTION     0.01     0.32    -0.28     0  18:10        0.32
  j_90489              JUNCTION     0.00     0.05    -0.18     0  18:08        0.05
  j_90490              JUNCTION     0.00     0.07    -0.24     0  18:10        0.07
  j_90491              JUNCTION     0.01     0.24    -0.30     0  18:10        0.24
  j_90492              JUNCTION     0.01     0.29    -0.33     0  18:10        0.28
  j_90493              JUNCTION     0.00     0.07    -0.25     0  18:10        0.07
  j_90494              JUNCTION     0.01     0.37    -0.37     0  18:11        0.34
  j_90495              JUNCTION     0.01     0.37    -0.34     0  18:11        0.35
  j_90496              JUNCTION     0.00     0.08    -0.24     0  18:10        0.08
  j_90497              JUNCTION     0.00     0.04    -0.14     0  18:10        0.04
  j_90498              JUNCTION     0.00     0.21    -0.27     0  18:10        0.21
  j_90499              JUNCTION     0.01     0.22    -0.25     0  18:10        0.21
  j_90500              JUNCTION     0.00     0.14    -0.24     0  18:10        0.14
  j_90501              JUNCTION     0.00     0.10    -0.17     0  18:10        0.10
  j_90502              JUNCTION     0.00     0.07    -0.16     0  18:10        0.07
  j_90503              JUNCTION     0.00     0.07    -0.16     0  18:10        0.07
  j_90504              JUNCTION     0.01     0.12    -0.16     0  18:10        0.12
  j_90505              JUNCTION     0.00     0.17    -0.33     0  18:10        0.16
  j_90506              JUNCTION     0.01     0.21    -0.30     0  18:10        0.21
  j_90507              JUNCTION     0.00     0.09    -0.28     0  18:10        0.09
  j_90508              JUNCTION     0.00     0.16    -0.29     0  18:10        0.16
  j_90509              JUNCTION     0.00     0.04    -0.21     0  18:10        0.04
  j_90510              JUNCTION     0.00     0.06    -0.25     0  18:10        0.06
  j_90511              JUNCTION     0.02     0.33    -0.26     0  18:10        0.33
  j_90512              JUNCTION     0.01     0.29    -0.25     0  18:10        0.29
  j_90513              JUNCTION     0.00     0.06    -0.20     0  18:10        0.06
  j_90514              JUNCTION     0.00     0.09    -0.23     0  18:10        0.09
  j_90515              JUNCTION     0.01     0.13    -0.28     0  18:10        0.13
  j_90516              JUNCTION     0.02     0.14    -0.30     0  18:10        0.14
  j_90517              JUNCTION     0.01     0.28    -0.64     0  18:11        0.27
  j_90518              JUNCTION     0.01     0.27    -0.61     0  18:10        0.27
  j_90519              JUNCTION     0.01     0.26    -0.57     0  18:10        0.25
  j_90520              JUNCTION     0.00     0.16    -0.19     0  18:10        0.16
  j_90521              JUNCTION     0.00     0.09    -0.15     0  18:10        0.09
  j_90522              JUNCTION     0.01     0.12    -0.15     0  18:10        0.12
  j_90523              JUNCTION     0.00     0.09    -0.11     0  18:07        0.09
  j_90524              JUNCTION     0.00     0.22    -0.23     0  18:10        0.21
  j_90525              JUNCTION     0.00     0.15    -0.20     0  18:10        0.15
  j_90526              JUNCTION     0.00     0.10    -0.16     0  18:10        0.10
  j_90527              JUNCTION     0.00     0.08    -0.10     0  18:10        0.08
  j_90549              JUNCTION     0.00     0.12    -0.29     0  18:10        0.12
  j_90550              JUNCTION     0.03     0.44    -0.79     0  18:16        0.44
  j_90551              JUNCTION     0.00     0.04     0.09     0  18:10        0.04
  j_90553              JUNCTION     0.01     0.18    -0.20     0  18:10        0.18
  j_90554              JUNCTION     0.00     0.14    -0.20     0  18:10        0.13
  j_90555              JUNCTION     0.00     0.08    -0.16     0  18:06        0.08
  j_90556              JUNCTION     0.01     0.17    -0.20     0  18:10        0.17
  j_90557              JUNCTION     0.01     0.17    -0.21     0  18:10        0.17
  j_90558              JUNCTION     0.02     0.32    -0.39     0  18:10        0.31
  j_90559              JUNCTION     0.00     0.19    -0.39     0  18:10        0.19
  j_90560              JUNCTION     0.00     0.19    -0.37     0  18:10        0.19
  j_90561              JUNCTION     0.00     0.10    -0.28     0  18:10        0.10
  j_90562              JUNCTION     0.01     0.16    -0.29     0  18:10        0.16
  j_90563              JUNCTION     0.01     0.30    -0.40     0  18:11        0.28
  j_90564              JUNCTION     0.02     0.40    -0.41     0  18:11        0.38
  j_90565              JUNCTION     0.00     0.08    -0.26     0  18:10        0.08
  j_90566              JUNCTION     0.00     0.05    -0.15     0  18:08        0.05
  j_90567              JUNCTION     0.00     0.05     0.08     0  18:10        0.05
  j_90568              JUNCTION     0.02     0.43    -0.68     0  18:15        0.43
  j_90569              JUNCTION     0.01     0.14    -0.18     0  18:10        0.14
  j_90570              JUNCTION     0.00     0.04    -0.04     0  18:10        0.04
  j_90571              JUNCTION     0.00     0.11    -0.32     0  18:09        0.11
  j_90572              JUNCTION     0.02     0.45    -0.41     0  18:12        0.43
  j_90573              JUNCTION     0.00     0.07    -0.27     0  18:09        0.07
  j_90574              JUNCTION     0.02     0.41    -0.39     0  18:12        0.38
  j_90575              JUNCTION     0.03     0.50    -0.41     0  18:12        0.48
  j_90576              JUNCTION     0.02     0.43    -0.49     0  18:12        0.42
  j_90577              JUNCTION     0.02     0.43    -0.55     0  18:14        0.43
  j_90578              JUNCTION     0.02     0.40    -0.55     0  18:15        0.40
  j_90579              JUNCTION     0.01     0.34    -0.54     0  18:16        0.34
  j_90580              JUNCTION     0.00     0.06    -0.07     0  17:12        0.06
  j_90581              JUNCTION     0.00     0.09    -0.15     0  18:10        0.09
  j_90582              JUNCTION     0.00     0.09    -0.15     0  18:10        0.09
  j_90583              JUNCTION     0.00     0.08    -0.23     0  18:09        0.08
  j_90584              JUNCTION     0.00     0.11    -0.24     0  18:10        0.11
  j_90585              JUNCTION     0.02     0.43    -0.40     0  18:11        0.41
  j_90586              JUNCTION     0.02     0.44    -0.38     0  18:12        0.42
  j_90587              JUNCTION     0.01     0.42    -0.37     0  18:12        0.40
  j_90588              JUNCTION     0.00     0.08    -0.28     0  18:10        0.08
  j_90589              JUNCTION     0.00     0.07    -0.21     0  18:10        0.07
  j_90590              JUNCTION     0.00     0.06    -0.19     0  18:10        0.06
  j_90591              JUNCTION     0.01     0.32    -0.29     0  18:11        0.31
  j_90592              JUNCTION     0.01     0.36    -0.31     0  18:11        0.34
  j_90593              JUNCTION     0.02     0.44    -0.35     0  18:11        0.41
  j_90594              JUNCTION     0.01     0.36    -0.34     0  18:11        0.34
  j_90595              JUNCTION     0.00     0.11    -0.23     0  18:10        0.11
  j_90596              JUNCTION     0.00     0.09    -0.23     0  18:09        0.09
  j_90597              JUNCTION     0.00     0.11    -0.17     0  18:10        0.11
  j_90598              JUNCTION     0.00     0.08    -0.17     0  18:10        0.08
  j_90599              JUNCTION     0.01     0.13    -0.16     0  18:10        0.13
  j_90600              JUNCTION     0.00     0.08    -0.14     0  18:10        0.08
  j_90601              JUNCTION     0.00     0.08    -0.09     0  17:13        0.07
  j_90602              JUNCTION     0.00     0.10    -0.17     0  18:10        0.10
  j_90603              JUNCTION     0.00     0.09    -0.20     0  18:10        0.09
  j_90604              JUNCTION     0.00     0.11    -0.25     0  18:10        0.11
  j_90605              JUNCTION     0.01     0.21    -0.25     0  18:10        0.21
  j_90606              JUNCTION     0.01     0.21    -0.22     0  18:10        0.21
  j_90607              JUNCTION     0.00     0.17    -0.21     0  18:10        0.17
  j_90608              JUNCTION     0.00     0.14    -0.20     0  18:10        0.14
  j_90609              JUNCTION     0.00     0.04    -0.13     0  18:10        0.04
  j_90610              JUNCTION     0.00     0.08    -0.14     0  18:10        0.08
  j_90611              JUNCTION     0.00     0.10    -0.17     0  18:10        0.10
  j_90612              JUNCTION     0.00     0.08    -0.13     0  18:10        0.08
  j_90613              JUNCTION     0.00     0.06    -0.04     0  18:10        0.06
  j_90615              JUNCTION     0.00     0.08    -0.21     0  18:06        0.08
  j_90616              JUNCTION     0.00     0.10    -0.22     0  18:10        0.10
  j_90617              JUNCTION     0.00     0.06    -0.17     0  18:10        0.06
  j_90618              JUNCTION     0.00     0.12    -0.25     0  18:10        0.12
  j_90619              JUNCTION     0.02     0.44    -0.56     0  18:14        0.44
  j_90620              JUNCTION     0.04     0.49    -0.56     0  18:15        0.49
  j_90621              JUNCTION     0.02     0.43    -0.55     0  18:14        0.43
  j_90623              JUNCTION     0.02     0.36    -0.54     0  18:14        0.36
  j_90624              JUNCTION     0.01     0.25    -0.54     0  18:14        0.25
  j_90625              JUNCTION     0.00     0.18    -0.52     0  18:12        0.18
  j_90626              JUNCTION     0.01     0.30    -0.52     0  18:14        0.29
  j_90627              JUNCTION     0.02     0.35    -0.53     0  18:14        0.35
  j_90628              JUNCTION     0.00     0.14    -0.27     0  18:10        0.14
  j_90629              JUNCTION     0.00     0.09    -0.26     0  18:10        0.09
  j_90630              JUNCTION     0.00     0.09    -0.10     0  18:10        0.09
  j_90631              JUNCTION     0.00     0.13    -0.29     0  18:10        0.13
  j_90632              JUNCTION     0.00     0.14    -0.31     0  18:10        0.14
  j_90633              JUNCTION     0.00     0.11    -0.37     0  18:10        0.11
  j_90634              JUNCTION     0.03     0.38    -0.50     0  18:12        0.38
  j_90635              JUNCTION     0.01     0.20    -0.50     0  18:12        0.19
  j_90636              JUNCTION     0.01     0.14    -0.43     0  18:10        0.14
  j_90637              JUNCTION     0.01     0.24    -0.47     0  18:12        0.23
  j_90638              JUNCTION     0.01     0.18    -0.30     0  18:10        0.18
  j_90639              JUNCTION     0.01     0.14    -0.26     0  18:10        0.14
  j_90640              JUNCTION     0.00     0.07    -0.22     0  18:10        0.07
  j_90641              JUNCTION     0.01     0.31    -0.53     0  18:16        0.30
  j_90642              JUNCTION     0.00     0.20    -0.53     0  18:15        0.20
  j_90643              JUNCTION     0.00     0.20    -0.52     0  18:16        0.19
  j_90644              JUNCTION     0.00     0.08    -0.07     0  18:10        0.08
  j_90645              JUNCTION     0.00     0.03     0.10     0  18:10        0.03
  j_90646              JUNCTION     0.01     0.11     0.01     0  18:10        0.11
  j_90647              JUNCTION     0.00     0.06     0.09     0  17:13        0.06
  j_90648              JUNCTION     0.00     0.09    -0.20     0  18:10        0.09
  j_90649              JUNCTION     0.00     0.10    -0.11     0  18:10        0.10
  j_90650              JUNCTION     0.00     0.16    -0.22     0  18:10        0.16
  j_90651              JUNCTION     0.00     0.10    -0.34     0  18:10        0.10
  j_90652              JUNCTION     0.00     0.11    -0.31     0  18:10        0.11
  j_90653              JUNCTION     0.00     0.05    -0.19     0  18:10        0.05
  j_90654              JUNCTION     0.01     0.24    -0.36     0  18:13        0.23
  j_90655              JUNCTION     0.02     0.28    -0.38     0  18:12        0.27
  j_90656              JUNCTION     0.01     0.28    -0.41     0  18:11        0.27
  j_90657              JUNCTION     0.00     0.05     0.28     0  18:10        0.05
  j_90658              JUNCTION     0.00     0.07     0.20     0  18:10        0.07
  j_90659              JUNCTION     0.00     0.08     0.10     0  18:10        0.08
  j_90662              JUNCTION     0.00     0.06    -0.26     0  18:10        0.06
  j_90663              JUNCTION     0.00     0.12    -0.31     0  18:06        0.12
  j_90664              JUNCTION     0.00     0.07    -0.20     0  18:10        0.07
  j_90665              JUNCTION     0.02     0.41    -0.56     0  18:15        0.41
  j_90669              JUNCTION     0.02     0.22    -0.01     0  18:10        0.22
  j_90670              JUNCTION     0.02     0.24    -0.01     0  18:10        0.24
  j_90671              JUNCTION     0.02     0.26    -0.00     0  18:10        0.25
  j_90672              JUNCTION     0.00     0.16    -0.30     0  18:11        0.15
  j_90673              JUNCTION     0.02     0.23    -0.30     0  18:10        0.22
  j_90674              JUNCTION     0.01     0.24    -0.36     0  18:12        0.24
  j_90675              JUNCTION     0.01     0.20    -0.02     0  18:10        0.20
  j_90676              JUNCTION     0.02     0.23    -0.01     0  18:10        0.23
  j_90677              JUNCTION     0.03     0.29    -0.00     0  18:10        0.28
  j_90678              JUNCTION     0.00     0.09    -0.01     0  18:10        0.09
  j_90679              JUNCTION     0.00     0.07     0.05     0  18:06        0.06
  j_90680              JUNCTION     0.01     0.21    -0.09     0  18:10        0.21
  j_90681              JUNCTION     0.02     0.23    -0.15     0  18:10        0.22
  j_90682              JUNCTION     0.00     0.03     0.00     0  18:10        0.03
  j_90683              JUNCTION     0.01     0.20    -0.25     0  18:11        0.20
  j_90684              JUNCTION     0.00     0.11    -0.25     0  18:11        0.11
  j_90685              JUNCTION     0.00     0.04     0.15     0  18:10        0.04
  j_90686              JUNCTION     0.00     0.16    -0.24     0  18:11        0.15
  j_90688              JUNCTION     0.00     0.04     0.49     0  18:10        0.04
  j_90689              JUNCTION     0.00     0.10    -0.20     0  18:10        0.10
  j_90690              JUNCTION     0.00     0.09    -0.16     0  18:10        0.09
  j_90691              JUNCTION     0.00     0.05     0.15     0  18:10        0.05
  j_90692              JUNCTION     0.00     0.03     0.23     0  18:10        0.03
  j_90693              JUNCTION     0.00     0.03     0.06     0  18:10        0.03
  j_90694              JUNCTION     0.00     0.04     0.10     0  18:10        0.04
  j_90695              JUNCTION     0.00     0.04     0.54     0  18:10        0.04
  j_90696              JUNCTION     0.00     0.06     0.06     0  18:10        0.06
  j_90697              JUNCTION     0.00     0.07     0.00     0  18:10        0.07
  j_90698              JUNCTION     0.00     0.08    -0.04     0  18:10        0.08
  j_90699              JUNCTION     0.00     0.08    -0.10     0  18:10        0.08
  j_90700              JUNCTION     0.00     0.03     0.53     0  18:10        0.03
  j_90701              JUNCTION     0.00     0.02     0.52     0  18:10        0.02
  j_90702              JUNCTION     0.00     0.02     0.52     0  18:10        0.02
  j_90703              JUNCTION     0.01     0.19    -0.29     0  18:10        0.19
  j_90704              JUNCTION     0.00     0.08    -0.14     0  18:09        0.08
  j_90705              JUNCTION     0.00     0.06    -0.20     0  18:10        0.06
  j_90706              JUNCTION     0.01     0.27    -0.27     0  18:10        0.27
  j_90707              JUNCTION     0.00     0.13    -0.25     0  18:10        0.12
  j_90708              JUNCTION     0.00     0.06    -0.05     0  18:10        0.06
  j_90709              JUNCTION     0.00     0.08    -0.12     0  18:10        0.08
  j_90710              JUNCTION     0.00     0.06     0.01     0  17:13        0.06
  j_90724              JUNCTION     0.02     0.26    -0.00     0  18:10        0.25
  j_90725              JUNCTION     0.00     0.04     0.04     0  17:15        0.04
  j_90726              JUNCTION     0.00     0.03     0.08     0  17:13        0.03
  j_90727              JUNCTION     0.00     0.03     0.13     0  17:12        0.03
  j_90728              JUNCTION     0.00     0.05     0.11     0  17:15        0.05
  j_90729              JUNCTION     0.00     0.03     0.26     0  17:15        0.03
  j_90730              JUNCTION     0.00     0.08    -0.00     0  17:15        0.08
  j_90731              JUNCTION     0.00     0.05     0.15     0  17:15        0.05
  j_90732              JUNCTION     0.00     0.02     0.17     0  17:15        0.02
  j_90733              JUNCTION     0.00     0.13    -0.01     0  18:10        0.13
  j_91272              JUNCTION     0.00     0.00     0.17     0  00:00        0.00
  j_91273              JUNCTION     0.00     0.00     0.47     0  00:00        0.00
  j_91274              JUNCTION     0.00     0.00     0.23     0  00:00        0.00
  j_91275              JUNCTION     0.00     0.00     0.47     0  00:00        0.00
  j_91276              JUNCTION     0.00     0.00     0.28     0  00:00        0.00
  j_91277              JUNCTION     0.00     0.00     0.51     0  00:00        0.00
  j_91278              JUNCTION     0.00     0.00     0.35     0  00:00        0.00
  j_91279              JUNCTION     0.00     0.00     0.50     0  00:00        0.00
  j_91292              JUNCTION     0.00     0.00    -0.01     0  00:00        0.00
  j_91293              JUNCTION     0.00     0.00    -0.23     0  00:00        0.00
  j_91294              JUNCTION     0.00     0.00     0.31     0  00:00        0.00
  j_90552              OUTFALL      0.00     0.00    -1.29     0  00:00        0.00
  j_90431              OUTFALL      0.00     0.08    -1.53     0  18:13        0.08
  
  
  *******************
  Node Inflow Summary
  *******************
  
  -------------------------------------------------------------------------------------------------
                                  Maximum  Maximum                  Lateral       Total        Flow
                                  Lateral    Total  Time of Max      Inflow      Inflow     Balance
                                   Inflow   Inflow   Occurrence      Volume      Volume       Error
  Node                 Type           CMS      CMS  days hr:min    10^6 ltr    10^6 ltr     Percent
  -------------------------------------------------------------------------------------------------
  j_9006F              JUNCTION     0.001    0.002     0  18:09     0.00103      0.0011       0.000
  j_90334              JUNCTION     0.006    0.006     0  17:15     0.00601     0.00601       0.000
  j_90335              JUNCTION     0.006    0.006     0  18:10      0.0039      0.0039       0.000
  j_90336              JUNCTION     0.001    0.005     0  18:10     0.00131     0.00453       0.000
  j_90363              JUNCTION     0.007    0.007     0  18:10     0.00438     0.00446       0.000
  j_90364              JUNCTION     0.002    0.013     0  18:06     0.00251      0.0136      -1.880
  j_90365              JUNCTION     0.000    0.003     0  17:12    0.000517    0.000893       6.425
  j_90366              JUNCTION     0.002    0.002     0  18:10     0.00188     0.00188       0.000
  j_90367              JUNCTION     0.002    0.017     0  18:10     0.00243      0.0177       0.175
  j_90368              JUNCTION     0.000    0.000     0  18:10           0    2.96e-06       0.795 ltr
  j_90369              JUNCTION     0.005    0.005     0  18:10     0.00482     0.00482       0.000
  j_90370              JUNCTION     0.002    0.014     0  18:07     0.00172      0.0104      -0.695
  j_90371              JUNCTION     0.003    0.036     0  18:10     0.00171      0.0355      -0.749
  j_90372              JUNCTION     0.001    0.001     0  17:15     0.00153     0.00153       0.000
  j_90373              JUNCTION     0.002    0.008     0  18:10    0.000883     0.00555      -0.256
  j_90374              JUNCTION     0.000    0.000     0  18:08           0    2.19e-05       0.000 ltr
  j_90375              JUNCTION     0.003    0.005     0  18:10     0.00171     0.00315      -0.632
  j_90376              JUNCTION     0.000    0.002     0  18:10    0.000384     0.00168       0.000
  j_90377              JUNCTION     0.002    0.004     0  18:07     0.00146     0.00315      -1.160
  j_90378              JUNCTION     0.003    0.006     0  18:10     0.00187     0.00568       0.000
  j_90379              JUNCTION     0.004    0.004     0  18:10     0.00375     0.00375      -1.658
  j_90380              JUNCTION     0.004    0.004     0  18:10     0.00401     0.00401       0.000
  j_90381              JUNCTION     0.003    0.007     0  18:10     0.00243     0.00651       1.927
  j_90382              JUNCTION     0.003    0.071     0  18:10      0.0026      0.0937      -0.281
  j_90383              JUNCTION     0.003    0.067     0  18:10     0.00204      0.0847      -0.040
  j_90384              JUNCTION     0.001    0.008     0  18:10     0.00169     0.00699       0.363
  j_90385              JUNCTION     0.002    0.006     0  18:10     0.00149     0.00534       0.795
  j_90386              JUNCTION     0.004    0.004     0  18:10      0.0038      0.0038      -1.199
  j_90387              JUNCTION     0.002    0.002     0  18:10     0.00211     0.00211       0.000
  j_90388              JUNCTION     0.002    0.004     0  18:10     0.00129     0.00344       4.752
  j_90389              JUNCTION     0.002    0.049     0  18:10     0.00182       0.058       0.000
  j_90390              JUNCTION     0.001    0.037     0  18:10     0.00115      0.0402      -0.005
  j_90391              JUNCTION     0.002    0.012     0  18:10      0.0023       0.016       0.021
  j_90392              JUNCTION     0.003    0.011     0  18:10     0.00349      0.0138       0.385
  j_90393              JUNCTION     0.005    0.009     0  18:10     0.00567      0.0102      -0.436
  j_90394              JUNCTION     0.001    0.004     0  18:10     0.00174      0.0032      -0.469
  j_90395              JUNCTION     0.002    0.003     0  18:10     0.00121     0.00145      -0.015
  j_90396              JUNCTION     0.001    0.001     0  18:07    0.000248    0.000248       1.319
  j_90397              JUNCTION     0.002    0.063     0  18:10     0.00226      0.0756      -0.058
  j_90398              JUNCTION     0.002    0.015     0  18:09     0.00263      0.0154       0.091
  j_90399              JUNCTION     0.002    0.004     0  18:10     0.00194     0.00293       0.126
  j_90400              JUNCTION     0.002    0.002     0  18:07     0.00136     0.00167      -0.885
  j_90401              JUNCTION     0.003    0.003     0  18:10     0.00162     0.00232      -0.609
  j_90402              JUNCTION     0.003    0.003     0  18:10     0.00167     0.00188       0.000
  j_90403              JUNCTION     0.001    0.001     0  18:10     0.00128     0.00128      -1.742
  j_90404              JUNCTION     0.002    0.003     0  18:10     0.00214     0.00291       0.222
  j_90405              JUNCTION     0.003    0.010     0  18:10     0.00243     0.00986       0.105
  j_90406              JUNCTION     0.002    0.007     0  18:10     0.00255     0.00744       0.111
  j_90407              JUNCTION     0.002    0.002     0  18:10     0.00196     0.00196      -1.614
  j_90408              JUNCTION     0.005    0.005     0  18:10     0.00396     0.00396      -0.671
  j_90427              JUNCTION     0.005    0.010     0  18:09     0.00454      0.0102       0.000
  j_90428              JUNCTION     0.003    0.006     0  18:10     0.00292     0.00554      -1.702
  j_90430              JUNCTION     0.002    0.203     0  18:12     0.00104        0.33       0.010
  j_90433              JUNCTION     0.001    0.001     0  17:16    0.000818     0.00094       0.000
  j_90434              JUNCTION     0.002    0.005     0  18:09     0.00107     0.00394      10.886
  j_90435              JUNCTION     0.003    0.006     0  18:10     0.00217     0.00561      -0.433
  j_90436              JUNCTION     0.002    0.018     0  18:10    0.000911      0.0175       0.000
  j_90437              JUNCTION     0.004    0.205     0  18:12      0.0025       0.329       0.009
  j_90438              JUNCTION     0.003    0.190     0  18:11     0.00238       0.304       0.011
  j_90439              JUNCTION     0.002    0.006     0  18:10     0.00138      0.0061       0.000
  j_90440              JUNCTION     0.005    0.005     0  18:10     0.00453     0.00453       1.908
  j_90441              JUNCTION     0.003    0.003     0  17:15     0.00289     0.00289      -0.346
  j_90442              JUNCTION     0.007    0.054     0  18:10     0.00743      0.0719       0.030
  j_90443              JUNCTION     0.007    0.193     0  18:10      0.0084       0.294      -0.088
  j_90444              JUNCTION     0.003    0.083     0  18:10     0.00212       0.123       0.007
  j_90445              JUNCTION     0.003    0.009     0  18:10      0.0026     0.00821       0.003
  j_90446              JUNCTION     0.003    0.006     0  18:10      0.0019     0.00566       0.935
[...]
  c_905171                1.00   0.74  0.00  0.00  0.01  0.00  0.00  0.25  0.00  0.00
  c_905172                1.00   0.74  0.08  0.00  0.18  0.00  0.00  0.00  0.23  0.00
  c_905181                1.00   0.74  0.00  0.00  0.00  0.00  0.00  0.26  0.00  0.00
  c_905182                1.00   0.74  0.00  0.00  0.01  0.00  0.25  0.00  0.00  0.00
  c_905191                1.00   0.74  0.00  0.00  0.04  0.00  0.00  0.22  0.02  0.00
  c_905192                1.00   0.74  0.13  0.00  0.13  0.00  0.00  0.00  0.21  0.00
  c_905201                1.00   0.74  0.00  0.00  0.00  0.00  0.00  0.26  0.00  0.00
  c_905211                1.00   0.74  0.19  0.00  0.07  0.00  0.00  0.00  0.26  0.00
  c_905221                1.00   0.74  0.11  0.00  0.15  0.00  0.00  0.00  0.11  0.00
  c_905231                1.00   0.93  0.02  0.00  0.05  0.00  0.00  0.00  0.24  0.00
  c_905241                1.00   0.74  0.18  0.00  0.08  0.00  0.00  0.00  0.24  0.00
  c_905251                1.00   0.92  0.01  0.00  0.06  0.00  0.00  0.00  0.25  0.00
  c_905261                1.00   0.94  0.00  0.00  0.06  0.00  0.00  0.00  0.26  0.00
  c_905271                1.00   0.94  0.00  0.00  0.06  0.00  0.00  0.00  0.25  0.00
  c_905501                1.00   0.74  0.00  0.00  0.00  0.00  0.00  0.26  0.00  0.00
  c_905511                1.00   0.74  0.00  0.00  0.00  0.00  0.00  0.26  0.00  0.00
  c_905521                1.00   0.74  0.00  0.00  0.00  0.00  0.00  0.26  0.00  0.00
  c_905541                1.00   0.74  0.22  0.00  0.03  0.00  0.00  0.00  0.00  0.00
  c_905551                1.00   0.74  0.00  0.00  0.01  0.00  0.00  0.25  0.00  0.00
  c_905561                1.00   0.74  0.00  0.00  0.26  0.00  0.00  0.00  0.00  0.00
  c_905571                1.00   0.74  0.00  0.00  0.26  0.00  0.00  0.00  0.00  0.00
  c_905572                1.00   0.74  0.16  0.00  0.10  0.00  0.00  0.00  0.17  0.00
  c_905581                1.00   0.74  0.00  0.00  0.01  0.00  0.00  0.25  0.01  0.00
  c_905591                1.00   0.74  0.17  0.00  0.09  0.00  0.00  0.00  0.24  0.00
  c_905601                1.00   0.91  0.01  0.00  0.08  0.00  0.00  0.00  0.19  0.00
  c_905602                1.00   0.92  0.02  0.00  0.06  0.00  0.00  0.00  0.26  0.00
  c_905611                1.00   0.74  0.19  0.00  0.07  0.00  0.00  0.00  0.23  0.00
  c_905621                1.00   0.74  0.19  0.00  0.07  0.00  0.00  0.00  0.25  0.00
  c_905622                1.00   0.74  0.19  0.00  0.07  0.00  0.00  0.00  0.26  0.00
  c_905631                1.00   0.74  0.00  0.00  0.01  0.00  0.00  0.25  0.00  0.00
  c_905632                1.00   0.74  0.00  0.00  0.26  0.00  0.00  0.00  0.00  0.00
  c_905641                1.00   0.74  0.00  0.00  0.07  0.00  0.00  0.19  0.03  0.00
  c_905651                1.00   0.74  0.00  0.00  0.01  0.00  0.00  0.25  0.01  0.00
  c_905661                1.00   0.74  0.00  0.00  0.00  0.00  0.00  0.26  0.00  0.00
  c_905681                1.00   0.74  0.00  0.00  0.26  0.00  0.00  0.00  0.23  0.00
  c_905682                1.00   0.74  0.00  0.00  0.00  0.00  0.00  0.26  0.00  0.00
  c_905691                1.00   0.74  0.21  0.00  0.05  0.00  0.00  0.00  0.26  0.00
  c_905701                1.00   0.74  0.00  0.00  0.00  0.00  0.00  0.26  0.00  0.00
  c_905711                1.00   0.74  0.00  0.00  0.05  0.00  0.00  0.21  0.04  0.00
  c_905721                1.00   0.74  0.00  0.00  0.08  0.00  0.00  0.18  0.00  0.00
  c_905722                1.00   0.74  0.00  0.00  0.01  0.00  0.00  0.25  0.01  0.00
  c_905731                1.00   0.74  0.00  0.00  0.05  0.00  0.00  0.21  0.00  0.00
  c_905732                1.00   0.74  0.00  0.00  0.01  0.00  0.00  0.25  0.01  0.00
  c_905741                1.00   0.74  0.10  0.00  0.16  0.00  0.00  0.00  0.21  0.00
  c_905751                1.00   0.74  0.06  0.00  0.20  0.00  0.00  0.00  0.20  0.00
  c_905752                1.00   0.74  0.00  0.00  0.26  0.00  0.00  0.00  0.16  0.00
  c_905761                1.00   0.74  0.00  0.00  0.26  0.00  0.00  0.00  0.02  0.00
  c_905771                1.00   0.74  0.00  0.00  0.26  0.00  0.00  0.00  0.07  0.00
  c_905781                1.00   0.74  0.16  0.00  0.10  0.00  0.00  0.00  0.18  0.00
  c_905791                1.00   0.90  0.01  0.00  0.09  0.00  0.00  0.00  0.19  0.00
  c_905811                1.00   0.92  0.03  0.00  0.05  0.00  0.00  0.00  0.25  0.00
  c_905821                1.00   0.74  0.00  0.00  0.26  0.00  0.00  0.00  0.00  0.00
  c_905831                1.00   0.74  0.21  0.00  0.05  0.00  0.00  0.00  0.25  0.00
  c_905841                1.00   0.74  0.18  0.00  0.08  0.00  0.00  0.00  0.25  0.00
  c_905851                1.00   0.74  0.03  0.00  0.22  0.00  0.00  0.00  0.19  0.00
  c_905852                1.00   0.74  0.00  0.00  0.01  0.00  0.00  0.25  0.01  0.00
  c_905861                1.00   0.74  0.00  0.00  0.09  0.00  0.00  0.17  0.00  0.00
  c_905862                1.00   0.74  0.00  0.00  0.01  0.00  0.00  0.25  0.00  0.00
  c_905871                1.00   0.74  0.05  0.00  0.21  0.00  0.00  0.00  0.19  0.00
  c_905881                1.00   0.74  0.00  0.00  0.01  0.00  0.00  0.25  0.01  0.00
  c_905891                1.00   0.74  0.00  0.00  0.26  0.00  0.00  0.00  0.24  0.00
  c_905892                1.00   0.74  0.23  0.00  0.03  0.00  0.00  0.00  0.25  0.00
  c_905901                1.00   0.93  0.01  0.00  0.06  0.00  0.00  0.00  0.26  0.00
  c_905902                1.00   0.94  0.00  0.00  0.02  0.00  0.00  0.03  0.00  0.00
  c_905921                1.00   0.74  0.09  0.00  0.17  0.00  0.00  0.00  0.21  0.00
  c_905931                1.00   0.74  0.00  0.00  0.26  0.00  0.00  0.00  0.00  0.00
  c_905941                1.00   0.74  0.06  0.00  0.20  0.00  0.00  0.00  0.21  0.00
  c_905942                1.00   0.74  0.00  0.00  0.05  0.00  0.21  0.00  0.00  0.00
  c_905951                1.00   0.74  0.00  0.00  0.01  0.00  0.00  0.25  0.01  0.00
  c_905961                1.00   0.74  0.00  0.00  0.01  0.00  0.00  0.25  0.01  0.00
  c_905971                1.00   0.74  0.18  0.00  0.08  0.00  0.00  0.00  0.24  0.00
  c_905981                1.00   0.74  0.20  0.00  0.06  0.00  0.00  0.00  0.25  0.00
  c_905982                1.00   0.92  0.02  0.00  0.06  0.00  0.00  0.00  0.23  0.00
  c_905991                1.00   0.74  0.00  0.00  0.26  0.00  0.00  0.00  0.00  0.00
  c_906001                1.00   0.92  0.02  0.00  0.06  0.00  0.00  0.00  0.26  0.00
  c_906011                1.00   0.94  0.01  0.00  0.05  0.00  0.00  0.00  0.25  0.00
  c_906031                1.00   0.74  0.00  0.00  0.04  0.00  0.00  0.21  0.00  0.00
  c_906041                1.00   0.74  0.22  0.00  0.04  0.00  0.00  0.00  0.26  0.00
  c_906051                1.00   0.74  0.17  0.00  0.09  0.00  0.00  0.00  0.25  0.00
  c_906052                1.00   0.74  0.00  0.00  0.01  0.00  0.00  0.25  0.01  0.00
  c_906061                1.00   0.74  0.11  0.00  0.15  0.00  0.00  0.00  0.24  0.00
  c_906071                1.00   0.74  0.16  0.00  0.10  0.00  0.00  0.00  0.21  0.00
  c_906081                1.00   0.90  0.01  0.00  0.09  0.00  0.00  0.00  0.23  0.00
  c_906082                1.00   0.74  0.00  0.00  0.26  0.00  0.00  0.00  0.25  0.00
  c_906091                1.00   0.74  0.19  0.00  0.07  0.00  0.00  0.00  0.26  0.00
  c_906101                1.00   0.74  0.19  0.00  0.07  0.00  0.00  0.00  0.25  0.00
  c_906111                1.00   0.74  0.00  0.00  0.06  0.00  0.00  0.20  0.06  0.00
  c_906112                1.00   0.74  0.00  0.00  0.05  0.00  0.00  0.21  0.01  0.00
  c_906121                1.00   0.74  0.20  0.00  0.06  0.00  0.00  0.00  0.25  0.00
  c_906131                1.00   0.94  0.01  0.00  0.05  0.00  0.00  0.00  0.26  0.00
  c_906132                1.00   0.94  0.00  0.00  0.05  0.00  0.00  0.00  0.26  0.00
  c_906151                1.00   0.74  0.00  0.00  0.01  0.00  0.00  0.25  0.01  0.00
  c_906161                1.00   0.74  0.20  0.00  0.06  0.00  0.00  0.00  0.26  0.00
  c_906171                1.00   0.94  0.00  0.00  0.06  0.00  0.00  0.00  0.26  0.00
  c_906181                1.00   0.74  0.20  0.00  0.06  0.00  0.00  0.00  0.26  0.00
  c_906191                1.00   0.74  0.00  0.00  0.26  0.00  0.00  0.00  0.17  0.00
  c_906192                1.00   0.74  0.00  0.00  0.26  0.00  0.00  0.00  0.16  0.00
  c_906201                1.00   0.74  0.00  0.00  0.26  0.00  0.00  0.00  0.00  0.00
  c_906202                1.00   0.74  0.00  0.00  0.00  0.00  0.00  0.26  0.00  0.00
  c_906211                1.00   0.74  0.00  0.00  0.26  0.00  0.00  0.00  0.17  0.00
  c_906231                1.00   0.74  0.00  0.00  0.26  0.00  0.00  0.00  0.19  0.00
  c_906241                1.00   0.91  0.00  0.00  0.08  0.00  0.00  0.00  0.20  0.00
  c_906261                1.00   0.92  0.00  0.00  0.08  0.00  0.00  0.00  0.24  0.00
  c_906271                1.00   0.92  0.00  0.00  0.08  0.00  0.00  0.00  0.18  0.00
  c_906272                1.00   0.74  0.00  0.00  0.26  0.00  0.00  0.00  0.00  0.00
  c_906281                1.00   0.74  0.00  0.00  0.00  0.00  0.00  0.26  0.00  0.00
  c_906291                1.00   0.74  0.19  0.00  0.07  0.00  0.00  0.00  0.25  0.00
  c_906301                1.00   0.74  0.00  0.00  0.00  0.00  0.00  0.26  0.00  0.00
  c_906321                1.00   0.93  0.07  0.00  0.00  0.00  0.00  0.00  0.00  0.00
  c_906322                1.00   0.74  0.00  0.00  0.03  0.00  0.00  0.23  0.00  0.00
  c_906331                1.00   0.74  0.00  0.00  0.26  0.00  0.00  0.00  0.22  0.00
  c_906341                1.00   0.74  0.00  0.00  0.01  0.00  0.00  0.25  0.01  0.00
  c_906342                1.00   0.74  0.00  0.00  0.12  0.00  0.00  0.14  0.00  0.00
  c_906351                1.00   0.92  0.03  0.00  0.05  0.00  0.00  0.00  0.24  0.00
  c_906352                1.00   0.74  0.00  0.00  0.06  0.00  0.00  0.20  0.00  0.00
  c_906361                1.00   0.74  0.00  0.00  0.06  0.00  0.00  0.20  0.04  0.00
  c_906371                1.00   0.74  0.00  0.00  0.26  0.00  0.00  0.00  0.24  0.00
  c_906381                1.00   0.74  0.00  0.00  0.00  0.00  0.00  0.26  0.00  0.00
  c_906391                1.00   0.74  0.16  0.00  0.10  0.00  0.00  0.00  0.25  0.00
  c_906401                1.00   0.74  0.26  0.00  0.00  0.00  0.00  0.00  0.00  0.00
  c_906402                1.00   0.74  0.00  0.00  0.01  0.00  0.00  0.25  0.00  0.00
  c_906411                1.00   0.91  0.00  0.00  0.09  0.00  0.00  0.00  0.19  0.00
  c_906421                1.00   0.91  0.01  0.00  0.08  0.00  0.00  0.00  0.24  0.00
  c_906431                1.00   0.92  0.00  0.00  0.08  0.00  0.00  0.00  0.21  0.00
  c_906441                1.00   0.74  0.00  0.00  0.00  0.00  0.00  0.26  0.00  0.00
  c_906461                1.00   0.74  0.17  0.00  0.09  0.00  0.00  0.00  0.26  0.00
  c_906471                1.00   0.93  0.00  0.00  0.06  0.00  0.00  0.00  0.25  0.00
  c_906481                1.00   0.74  0.20  0.00  0.06  0.00  0.00  0.00  0.26  0.00
  c_906491                1.00   0.97  0.00  0.00  0.02  0.00  0.00  0.01  0.00  0.00
  c_906492                1.00   0.74  0.00  0.00  0.00  0.00  0.00  0.26  0.00  0.00
  c_906501                1.00   0.74  0.04  0.00  0.22  0.00  0.00  0.00  0.26  0.00
  c_906511                1.00   0.74  0.16  0.00  0.10  0.00  0.00  0.00  0.26  0.00
  c_906521                1.00   0.90  0.02  0.00  0.08  0.00  0.00  0.00  0.19  0.00
  c_906531                1.00   0.92  0.02  0.00  0.06  0.00  0.00  0.00  0.26  0.00
  c_906541                1.00   0.74  0.00  0.00  0.26  0.00  0.00  0.00  0.20  0.00
  c_906561                1.00   0.74  0.00  0.00  0.07  0.00  0.18  0.00  0.00  0.00
  c_906562                1.00   0.74  0.00  0.00  0.26  0.00  0.00  0.00  0.00  0.00
  c_906563                1.00   0.74  0.00  0.00  0.01  0.00  0.00  0.25  0.00  0.00
  c_906581                1.00   0.94  0.01  0.00  0.05  0.00  0.00  0.00  0.25  0.00
  c_906591                1.00   0.74  0.00  0.00  0.00  0.00  0.00  0.26  0.00  0.00
  c_906592                1.00   0.74  0.20  0.00  0.06  0.00  0.00  0.00  0.26  0.00
  c_906621                1.00   0.74  0.00  0.00  0.00  0.00  0.00  0.26  0.00  0.00
  c_906622                1.00   0.74  0.00  0.00  0.25  0.01  0.00  0.00  0.23  0.00
  c_906631                1.00   0.74  0.00  0.00  0.00  0.00  0.00  0.26  0.00  0.00
  c_906641                1.00   0.74  0.00  0.00  0.02  0.00  0.00  0.24  0.00  0.00
  c_906651                1.00   0.74  0.00  0.00  0.11  0.00  0.00  0.15  0.00  0.00
  c_906701                1.00   0.74  0.00  0.00  0.26  0.00  0.00  0.00  0.00  0.00
  c_906731                1.00   0.74  0.00  0.00  0.06  0.00  0.00  0.20  0.00  0.00
  c_906741                1.00   0.74  0.00  0.00  0.26  0.00  0.00  0.00  0.00  0.00
  c_906742                1.00   0.74  0.00  0.00  0.12  0.00  0.00  0.14  0.02  0.00
  c_906751                1.00   0.84  0.08  0.00  0.08  0.00  0.00  0.00  0.20  0.00
  c_906761                1.00   0.74  0.00  0.00  0.26  0.00  0.00  0.00  0.00  0.00
  c_906771                1.00   0.74  0.00  0.00  0.26  0.00  0.00  0.00  0.00  0.00
  c_906772                1.00   0.74  0.00  0.00  0.26  0.00  0.00  0.00  0.00  0.00
  c_906781                1.00   0.74  0.18  0.00  0.08  0.00  0.00  0.00  0.25  0.00
  c_906791                1.00   0.92  0.02  0.00  0.06  0.00  0.00  0.00  0.24  0.00
  c_906801                1.00   0.74  0.00  0.00  0.06  0.00  0.00  0.20  0.01  0.00
  c_906811                1.00   0.74  0.00  0.00  0.26  0.00  0.00  0.00  0.25  0.00
  c_906821                1.00   0.74  0.18  0.00  0.08  0.00  0.00  0.00  0.26  0.00
  c_906831                1.00   0.74  0.00  0.00  0.01  0.00  0.00  0.25  0.00  0.00
  c_906832                1.00   0.74  0.00  0.00  0.26  0.00  0.00  0.00  0.25  0.00
  c_906841                1.00   0.74  0.00  0.00  0.04  0.00  0.00  0.22  0.01  0.00
  c_906851                1.00   0.74  0.00  0.00  0.00  0.00  0.00  0.26  0.00  0.00
  c_906861                1.00   0.74  0.17  0.00  0.09  0.00  0.00  0.00  0.21  0.00
  c_906862                1.00   0.91  0.02  0.00  0.07  0.00  0.00  0.00  0.24  0.00
  c_906891                1.00   0.74  0.00  0.00  0.00  0.00  0.00  0.26  0.00  0.00
  c_906892                1.00   0.74  0.00  0.00  0.00  0.00  0.00  0.26  0.00  0.00
  c_906901                1.00   0.74  0.00  0.00  0.26  0.00  0.00  0.00  0.26  0.00
  c_906911                1.00   0.74  0.00  0.00  0.00  0.00  0.00  0.26  0.00  0.00
  c_906921                1.00   0.74  0.18  0.00  0.08  0.00  0.00  0.00  0.26  0.00
  c_906931                1.00   0.92  0.08  0.00  0.00  0.00  0.00  0.00  0.00  0.00
  c_906932                1.00   0.74  0.00  0.00  0.00  0.00  0.00  0.26  0.00  0.00
  c_906941                1.00   0.74  0.26  0.00  0.00  0.00  0.00  0.00  0.00  0.00
  c_906951                1.00   0.74  0.00  0.00  0.00  0.00  0.00  0.26  0.00  0.00
  c_906961                1.00   0.74  0.00  0.00  0.26  0.00  0.00  0.00  0.25  0.00
  c_906971                1.00   0.74  0.00  0.00  0.26  0.00  0.00  0.00  0.26  0.00
  c_906981                1.00   0.74  0.00  0.00  0.26  0.00  0.00  0.00  0.25  0.00
  c_906991                1.00   0.74  0.00  0.00  0.26  0.00  0.00  0.00  0.25  0.00
  c_906992                1.00   0.74  0.17  0.00  0.09  0.00  0.00  0.00  0.25  0.00
  c_907001                1.00   0.74  0.00  0.00  0.00  0.00  0.00  0.26  0.00  0.00
  c_907011                1.00   0.74  0.00  0.00  0.00  0.00  0.00  0.26  0.00  0.00
  c_907021                1.00   0.74  0.00  0.00  0.00  0.00  0.00  0.26  0.00  0.00
  c_907031                1.00   0.74  0.16  0.00  0.09  0.00  0.00  0.00  0.21  0.00
  c_907032                1.00   0.74  0.00  0.00  0.01  0.00  0.00  0.25  0.01  0.00
  c_907033                1.00   0.74  0.00  0.00  0.07  0.00  0.00  0.19  0.03  0.00
  c_907041                1.00   0.74  0.00  0.00  0.02  0.00  0.00  0.24  0.00  0.00
  c_907042                1.00   0.74  0.20  0.00  0.06  0.00  0.00  0.00  0.23  0.00
  c_907051                1.00   0.96  0.04  0.00  0.00  0.00  0.00  0.00  0.00  0.00
  c_907061                1.00   0.74  0.00  0.00  0.26  0.00  0.00  0.00  0.00  0.00
  c_907062                1.00   0.74  0.00  0.00  0.26  0.00  0.00  0.00  0.23  0.00
  c_907071                1.00   0.74  0.00  0.00  0.01  0.00  0.00  0.25  0.00  0.00
  c_907081                1.00   0.74  0.00  0.00  0.00  0.00  0.00  0.26  0.00  0.00
  c_907091                1.00   0.74  0.15  0.00  0.11  0.00  0.00  0.00  0.26  0.00
  c_907101                1.00   0.89  0.04  0.00  0.07  0.00  0.00  0.00  0.25  0.00
  c_907241                1.00   0.74  0.00  0.00  0.26  0.00  0.00  0.00  0.00  0.00
  c_907242                1.00   0.74  0.00  0.00  0.26  0.00  0.00  0.00  0.00  0.00
  c_907251                1.00   0.74  0.00  0.00  0.08  0.00  0.00  0.18  0.26  0.00
  c_907261                1.00   0.74  0.20  0.00  0.06  0.00  0.00  0.00  0.25  0.00
  c_907271                1.00   0.94  0.01  0.00  0.05  0.00  0.00  0.00  0.25  0.00
  c_907281                1.00   0.91  0.09  0.00  0.00  0.00  0.00  0.00  0.00  0.00
  c_907291                1.00   0.91  0.02  0.00  0.07  0.00  0.00  0.00  0.26  0.00
  c_907301                1.00   0.90  0.01  0.00  0.09  0.00  0.00  0.00  0.26  0.00
  c_907311                1.00   0.90  0.02  0.00  0.09  0.00  0.00  0.00  0.26  0.00
  c_907321                1.00   0.91  0.03  0.00  0.06  0.00  0.00  0.00  0.26  0.00
  c_907331                1.00   0.74  0.16  0.00  0.10  0.00  0.00  0.00  0.24  0.00
  c_907332                1.00   0.74  0.00  0.00  0.08  0.00  0.00  0.18  0.03  0.00
  c_912721                1.00   1.00  0.00  0.00  0.00  0.00  0.00  0.00  0.00  0.00
  c_912731                1.00   1.00  0.00  0.00  0.00  0.00  0.00  0.00  0.00  0.00
  c_912741                1.00   1.00  0.00  0.00  0.00  0.00  0.00  0.00  0.00  0.00
  c_912751                1.00   1.00  0.00  0.00  0.00  0.00  0.00  0.00  0.00  0.00
  c_912761                1.00   1.00  0.00  0.00  0.00  0.00  0.00  0.00  0.00  0.00
  c_912771                1.00   1.00  0.00  0.00  0.00  0.00  0.00  0.00  0.00  0.00
  c_912781                1.00   1.00  0.00  0.00  0.00  0.00  0.00  0.00  0.00  0.00
  c_912791                1.00   1.00  0.00  0.00  0.00  0.00  0.00  0.00  0.00  0.00
  c_912931                1.00   1.00  0.00  0.00  0.00  0.00  0.00  0.00  0.00  0.00
  c_912932                1.00   1.00  0.00  0.00  0.00  0.00  0.00  0.00  0.00  0.00
  c_912941                1.00   1.00  0.00  0.00  0.00  0.00  0.00  0.00  0.00  0.00
  
  
  *************************
  Conduit Surcharge Summary
  *************************
  
  ----------------------------------------------------------------------------
                                                           Hours        Hours 
                         --------- Hours Full --------   Above Full   Capacity
  Conduit                Both Ends  Upstream  Dnstream   Normal Flow   Limited
  ----------------------------------------------------------------------------
  c_903642                    0.01      0.01      0.01      0.08         0.01
  c_904421                    0.01      0.01      0.01      0.04         0.01
  c_905571                    0.01      0.01      0.01      0.01         0.01
  c_905632                    0.01      0.01      0.01      0.51         0.01
  c_905751                    0.01      0.01      0.14      0.01         0.01
  c_905861                    0.01      0.01      0.01      0.76         0.01
  c_905931                    0.01      0.01      0.01      0.61         0.01
  c_905942                    0.01      0.01      0.01      0.13         0.01
  c_906201                    0.01      0.01      0.01      0.32         0.01
  

  Analysis begun on:  Sun Jun 12 01:33:52 2022
  Analysis ended on:  Sun Jun 12 01:34:11 2022
  Total elapsed time: 00:00:19