
  EPA STORM WATER MANAGEMENT MODEL - VERSION 5.1 (Build 5.1.015)
  --------------------------------------------------------------

  WARNING 04: minimum elevation drop used for Conduit c_903642
  WARNING 04: minimum elevation drop used for Conduit c_903651
  WARNING 04: minimum elevation drop used for Conduit c_903672
  WARNING 04: minimum elevation drop used for Conduit c_905571
  WARNING 04: minimum elevation drop used for Conduit c_905632
  WARNING 04: minimum elevation drop used for Conduit c_905821
  WARNING 04: minimum elevation drop used for Conduit c_905861
  WARNING 04: minimum elevation drop used for Conduit c_905931
  WARNING 04: minimum elevation drop used for Conduit c_906201
  WARNING 04: minimum elevation drop used for Conduit c_906322
  WARNING 04: minimum elevation drop used for Conduit c_906631
  WARNING 04: minimum elevation drop used for Conduit c_906641
  WARNING 04: minimum elevation drop used for Conduit c_906651
  WARNING 04: minimum elevation drop used for Conduit c_906731
  WARNING 04: minimum elevation drop used for Conduit c_906741
  WARNING 04: minimum elevation drop used for Conduit c_907242
  
  *********************
  Rainfall File Summary
  *********************
  Station    First        Last         Recording   Periods    Periods    Periods
  ID         Date         Date         Frequency  w/Precip    Missing    Malfunc.
  -------------------------------------------------------------------------------
  R1         01/01/2019   01/01/2019       5 min        54          0          0
  R1         01/01/2019   01/01/2019       5 min        54          0          0
  R1         01/01/2019   01/01/2019       5 min        54          0          0

  
  *********************************************************
  NOTE: The summary statistics displayed in this report are
  based on results found at every computational time step,  
  not just on results from each reporting time step.
  *********************************************************
  
  ****************
  Analysis Options
  ****************
  Flow Units ............... CMS
  Process Models:
    Rainfall/Runoff ........ YES
    RDII ................... NO
    Snowmelt ............... NO
    Groundwater ............ NO
    Flow Routing ........... YES
    Ponding Allowed ........ NO
    Water Quality .......... NO
  Infiltration Method ...... HORTON
  Flow Routing Method ...... DYNWAVE
  Surcharge Method ......... EXTRAN
  Starting Date ............ 01/01/2019 00:00:00
  Ending Date .............. 01/01/2019 04:30:00
  Antecedent Dry Days ...... 0.0
  Report Time Step ......... 00:05:00
  Wet Time Step ............ 00:01:00
  Dry Time Step ............ 00:10:00
  Routing Time Step ........ 1.00 sec
  Variable Time Step ....... YES
  Maximum Trials ........... 12
  Number of Threads ........ 2
  Head Tolerance ........... 0.000200 m
  
  
  **************************        Volume         Depth
  Runoff Quantity Continuity     hectare-m            mm
  **************************     ---------       -------
  Total Precipitation ......         0.335        12.077
  Evaporation Loss .........         0.004         0.132
  Infiltration Loss ........         0.018         0.655
  Surface Runoff ...........         0.216         7.774
  Final Storage ............         0.103         3.709
  Continuity Error (%) .....        -1.590
  
  
  **************************        Volume        Volume
  Flow Routing Continuity        hectare-m      10^6 ltr
  **************************     ---------     ---------
  Dry Weather Inflow .......         0.000         0.000
  Wet Weather Inflow .......         0.216         2.157
  Groundwater Inflow .......         0.000         0.000
  RDII Inflow ..............         0.000         0.000
  External Inflow ..........         0.000         0.000
  External Outflow .........         0.215         2.151
  Flooding Loss ............         0.000         0.000
  Evaporation Loss .........         0.000         0.000
  Exfiltration Loss ........         0.000         0.000
  Initial Stored Volume ....         0.000         0.000
  Final Stored Volume ......         0.001         0.014
  Continuity Error (%) .....        -0.355
  
  
  *************************
  Highest Continuity Errors
  *************************
  Node j_90434 (3.97%)
  Node j_90638 (2.80%)
  Node j_90510 (2.72%)
  Node j_90650 (2.67%)
  Node j_90628 (2.44%)
  
  
  ***************************
  Time-Step Critical Elements
  ***************************
  Link c_904312 (16.83%)
  
  
  ********************************
  Highest Flow Instability Indexes
  ********************************
  All links are stable.
  
  
  *************************
  Routing Time Step Summary
  *************************
  Minimum Time Step           :     0.50 sec
  Average Time Step           :     0.95 sec
  Maximum Time Step           :     1.00 sec
  Percent in Steady State     :     1.85
  Average Iterations per Step :     2.11
  Percent Not Converging      :     0.66
  Time Step Frequencies       :
      1.000 -  0.871 sec      :    85.58 %
      0.871 -  0.758 sec      :     3.05 %
      0.758 -  0.660 sec      :     4.35 %
      0.660 -  0.574 sec      :     6.94 %
      0.574 -  0.500 sec      :     0.08 %
  
  
  ***************************
  Subcatchment Runoff Summary
  ***************************
  
  ------------------------------------------------------------------------------------------------------------------------------
                            Total      Total      Total      Total     Imperv       Perv      Total       Total     Peak  Runoff
                           Precip      Runon       Evap      Infil     Runoff     Runoff     Runoff      Runoff   Runoff   Coeff
  Subcatchment                 mm         mm         mm         mm         mm         mm         mm    10^6 ltr      CMS
  ------------------------------------------------------------------------------------------------------------------------------
  sub_9006F                 12.08       0.00       0.13       0.54       4.19       3.33       7.52        0.00     0.00   0.623
  sub_90334                 12.08       0.00       0.12       1.43       0.76       8.79       9.55        0.01     0.01   0.791
  sub_90335                 12.08       0.00       0.14       0.33       5.01       2.02       7.03        0.01     0.02   0.582
  sub_90336                 12.08       0.00       0.13       1.10       2.03       6.77       8.80        0.00     0.00   0.728
  sub_90363                 12.08       0.00       0.14       0.33       5.00       2.04       7.04        0.02     0.02   0.583
  sub_90364                 12.08       0.00       0.12       1.22       1.60       7.45       9.05        0.00     0.00   0.749
  sub_90365                 12.08       0.00       0.12       1.63       0.00      10.00      10.00        0.00     0.00   0.828
  sub_90366                 12.08       0.00       0.13       0.55       4.16       3.38       7.54        0.01     0.01   0.624
  sub_90367                 12.08       0.00       0.13       0.93       2.71       5.69       8.40        0.01     0.01   0.695
  sub_90369                 12.08       0.00       0.13       0.66       3.72       4.07       7.80        0.01     0.01   0.645
  sub_90370                 12.08       0.00       0.14       0.45       4.56       2.74       7.30        0.01     0.01   0.604
  sub_90371                 12.08       0.00       0.14       0.23       5.38       1.43       6.81        0.01     0.01   0.564
  sub_90372                 12.08       0.00       0.13       1.03       2.31       6.31       8.63        0.00     0.00   0.714
  sub_90373                 12.08       0.00       0.14       0.07       6.01       0.43       6.44        0.00     0.01   0.534
  sub_90375                 12.08       0.00       0.14       0.33       5.03       2.00       7.02        0.01     0.01   0.582
  sub_90376                 12.08       0.00       0.13       0.58       4.04       3.57       7.61        0.00     0.00   0.630
  sub_90377                 12.08       0.00       0.14       0.34       4.96       2.11       7.07        0.01     0.01   0.585
  sub_90378                 12.08       0.00       0.13       0.46       4.51       2.82       7.33        0.01     0.01   0.607
  sub_90379                 12.08       0.00       0.13       0.77       3.31       4.73       8.04        0.01     0.01   0.666
  sub_90380                 12.08       0.00       0.13       0.70       3.58       4.31       7.88        0.01     0.01   0.653
  sub_90381                 12.08       0.00       0.13       0.71       3.54       4.36       7.90        0.01     0.01   0.654
  sub_90382                 12.08       0.00       0.13       0.59       4.01       3.62       7.63        0.01     0.01   0.631
  sub_90383                 12.08       0.00       0.13       0.50       4.34       3.08       7.43        0.01     0.01   0.615
  sub_90384                 12.08       0.00       0.13       0.96       2.57       5.91       8.48        0.00     0.00   0.702
  sub_90385                 12.08       0.00       0.14       0.43       4.64       2.61       7.25        0.00     0.01   0.601
  sub_90386                 12.08       0.00       0.13       0.78       3.28       4.78       8.06        0.01     0.01   0.667
  sub_90387                 12.08       0.00       0.13       0.61       3.94       3.73       7.67        0.01     0.01   0.635
  sub_90388                 12.08       0.00       0.13       0.60       3.96       3.69       7.65        0.00     0.00   0.634
  sub_90389                 12.08       0.00       0.13       0.67       3.71       4.10       7.80        0.00     0.01   0.646
  sub_90390                 12.08       0.00       0.13       0.84       3.05       5.15       8.20        0.00     0.00   0.679
  sub_90391                 12.08       0.00       0.12       1.63       0.00      10.00      10.00        0.00     0.00   0.828
  sub_90392                 12.08       0.00       0.13       1.04       2.26       6.39       8.66        0.01     0.01   0.717
  sub_90393                 12.08       0.00       0.13       1.03       2.32       6.31       8.63        0.01     0.01   0.714
  sub_90394                 12.08       0.00       0.13       0.98       2.51       6.00       8.51        0.00     0.00   0.705
  sub_90395                 12.08       0.00       0.14       0.38       4.82       2.32       7.14        0.00     0.01   0.592
  sub_90396                 12.08       0.00       0.14       0.00       6.28       0.00       6.28        0.00     0.00   0.520
  sub_90397                 12.08       0.00       0.13       0.88       2.89       5.39       8.29        0.01     0.01   0.686
  sub_90398                 12.08       0.00       0.13       0.92       2.74       5.63       8.37        0.01     0.01   0.693
  sub_90399                 12.08       0.00       0.13       0.51       4.30       3.16       7.45        0.01     0.01   0.617
  sub_90400                 12.08       0.00       0.13       0.61       3.93       3.75       7.67        0.00     0.00   0.635
  sub_90401                 12.08       0.00       0.14       0.36       4.90       2.21       7.10        0.01     0.01   0.588
  sub_90402                 12.08       0.00       0.14       0.38       4.81       2.34       7.15        0.01     0.01   0.592
  sub_90403                 12.08       0.00       0.13       0.62       3.91       3.78       7.69        0.00     0.00   0.636
  sub_90404                 12.08       0.00       0.13       0.65       3.79       3.97       7.76        0.01     0.01   0.642
  sub_90405                 12.08       0.00       0.13       0.71       3.54       4.36       7.90        0.01     0.01   0.654
  sub_90406                 12.08       0.00       0.13       0.86       2.97       5.28       8.24        0.01     0.01   0.682
  sub_90407                 12.08       0.00       0.13       0.84       3.03       5.18       8.21        0.00     0.00   0.679
  sub_90408                 12.08       0.00       0.13       0.54       4.20       3.31       7.51        0.01     0.01   0.622
  sub_90427                 12.08       0.00       0.13       0.63       3.84       3.88       7.73        0.01     0.01   0.640
  sub_90428                 12.08       0.00       0.13       0.77       3.32       4.72       8.03        0.01     0.01   0.665
  sub_90430                 12.08       0.00       0.14       0.37       4.87       2.24       7.12        0.00     0.00   0.589
  sub_90431                 12.08       0.00       0.13       0.59       4.01       3.62       7.63        0.01     0.01   0.632
  sub_90433                 12.08       0.00       0.13       0.81       3.14       5.00       8.14        0.00     0.00   0.674
  sub_90434                 12.08       0.00       0.14       0.29       5.16       1.78       6.95        0.00     0.01   0.575
  sub_90435                 12.08       0.00       0.13       0.52       4.29       3.18       7.46        0.01     0.01   0.618
  sub_90436                 12.08       0.00       0.14       0.26       5.28       1.60       6.88        0.00     0.00   0.569
  sub_90437                 12.08       0.00       0.14       0.41       4.70       2.52       7.22        0.01     0.01   0.598
  sub_90438                 12.08       0.00       0.13       0.58       4.04       3.56       7.61        0.01     0.01   0.630
  sub_90439                 12.08       0.00       0.13       0.59       4.02       3.60       7.62        0.00     0.00   0.631
  sub_90440                 12.08       0.00       0.13       0.66       3.72       4.08       7.80        0.01     0.01   0.646
  sub_90441                 12.08       0.00       0.13       1.09       2.09       6.66       8.76        0.01     0.01   0.725
  sub_90442                 12.08       0.00       0.12       1.28       1.36       7.83       9.19        0.01     0.01   0.761
  sub_90443                 12.08       0.00       0.13       0.95       2.62       5.83       8.45        0.02     0.02   0.700
  sub_90444                 12.08       0.00       0.13       0.46       4.52       2.81       7.33        0.01     0.01   0.607
  sub_90445                 12.08       0.00       0.13       0.80       3.18       4.93       8.11        0.01     0.01   0.672
  sub_90446                 12.08       0.00       0.13       0.49       4.41       2.99       7.39        0.01     0.01   0.612
  sub_90447                 12.08       0.00       0.13       0.76       3.36       4.65       8.01        0.01     0.01   0.663
  sub_90448                 12.08       0.00       0.13       0.70       3.57       4.32       7.89        0.01     0.01   0.653
  sub_90449                 12.08       0.00       0.13       0.66       3.72       4.07       7.80        0.00     0.00   0.645
  sub_90450                 12.08       0.00       0.13       0.56       4.12       3.45       7.56        0.00     0.00   0.626
  sub_90451                 12.08       0.00       0.13       0.71       3.53       4.38       7.91        0.01     0.01   0.655
  sub_90452                 12.08       0.00       0.13       0.92       2.75       5.62       8.37        0.00     0.00   0.693
  sub_90453                 12.08       0.00       0.13       0.47       4.47       2.89       7.36        0.01     0.01   0.609
  sub_90454                 12.08       0.00       0.13       0.63       3.84       3.89       7.73        0.01     0.01   0.640
  sub_90455                 12.08       0.00       0.14       0.35       4.94       2.14       7.08        0.01     0.01   0.586
  sub_90456                 12.08       0.00       0.13       0.95       2.64       5.80       8.44        0.01     0.01   0.698
  sub_90457                 12.08       0.00       0.13       0.93       2.70       5.70       8.40        0.01     0.01   0.696
  sub_90459                 12.08       0.00       0.12       1.13       1.93       6.92       8.85        0.02     0.02   0.733
  sub_90460                 12.08       0.00       0.12       1.51       0.45       9.27       9.73        0.01     0.01   0.805
  sub_90461                 12.08       0.00       0.13       0.54       4.19       3.33       7.52        0.00     0.00   0.623
  sub_90462                 12.08       0.00       0.13       0.77       3.33       4.70       8.03        0.01     0.01   0.665
  sub_90463                 12.08       0.00       0.14       0.39       4.77       2.41       7.18        0.01     0.01   0.594
  sub_90464                 12.08       0.00       0.13       0.66       3.76       4.02       7.77        0.01     0.01   0.644
  sub_90465                 12.08       0.00       0.14       0.35       4.94       2.14       7.08        0.01     0.01   0.586
  sub_90466                 12.08       0.00       0.13       0.61       3.93       3.75       7.67        0.01     0.01   0.635
  sub_90467                 12.08       0.00       0.14       0.30       5.13       1.83       6.96        0.01     0.01   0.577
  sub_90468                 12.08       0.00       0.13       0.58       4.05       3.55       7.60        0.01     0.01   0.629
  sub_90469                 12.08       0.00       0.14       0.35       4.94       2.14       7.08        0.01     0.01   0.586
  sub_90470                 12.08       0.00       0.13       0.60       3.97       3.68       7.65        0.01     0.01   0.633
  sub_90471                 12.08       0.00       0.13       0.50       4.37       3.05       7.41        0.01     0.01   0.614
  sub_90477                 12.08       0.00       0.14       0.34       4.97       2.08       7.06        0.01     0.01   0.584
  sub_90478                 12.08       0.00       0.14       0.39       4.77       2.41       7.18        0.01     0.01   0.594
  sub_90479                 12.08       0.00       0.13       0.93       2.68       5.73       8.41        0.01     0.01   0.696
  sub_90480                 12.08       0.00       0.13       0.46       4.51       2.82       7.33        0.01     0.01   0.607
  sub_90481                 12.08       0.00       0.13       0.58       4.03       3.58       7.61        0.01     0.01   0.630
  sub_90482                 12.08       0.00       0.13       0.61       3.94       3.73       7.67        0.00     0.01   0.635
  sub_90483                 12.08       0.00       0.12       1.22       1.57       7.50       9.07        0.01     0.01   0.751
  sub_90484                 12.08       0.00       0.13       0.51       4.32       3.12       7.44        0.01     0.01   0.616
  sub_90485                 12.08       0.00       0.13       0.92       2.74       5.63       8.37        0.01     0.01   0.693
  sub_90486                 12.08       0.00       0.13       0.68       3.66       4.18       7.83        0.01     0.01   0.649
  sub_90487                 12.08       0.00       0.13       0.58       4.03       3.58       7.61        0.01     0.02   0.630
  sub_90488                 12.08       0.00       0.13       0.71       3.54       4.37       7.91        0.01     0.01   0.655
  sub_90489                 12.08       0.00       0.14       0.36       4.89       2.21       7.10        0.01     0.01   0.588
  sub_90490                 12.08       0.00       0.14       0.32       5.04       1.98       7.02        0.01     0.01   0.581
  sub_90491                 12.08       0.00       0.14       0.38       4.82       2.33       7.15        0.01     0.01   0.592
  sub_90492                 12.08       0.00       0.13       0.51       4.31       3.13       7.45        0.01     0.01   0.617
  sub_90493                 12.08       0.00       0.14       0.35       4.94       2.13       7.08        0.01     0.01   0.586
  sub_90494                 12.08       0.00       0.14       0.33       5.00       2.04       7.04        0.01     0.01   0.583
  sub_90495                 12.08       0.00       0.13       0.52       4.27       3.20       7.47        0.01     0.01   0.619
  sub_90496                 12.08       0.00       0.14       0.35       4.94       2.13       7.08        0.01     0.01   0.586
  sub_90497                 12.08       0.00       0.14       0.31       5.08       1.91       6.99        0.01     0.01   0.579
  sub_90498                 12.08       0.00       0.13       0.59       4.02       3.60       7.62        0.01     0.01   0.631
  sub_90499                 12.08       0.00       0.13       1.02       2.34       6.27       8.61        0.01     0.01   0.713
  sub_90500                 12.08       0.00       0.13       0.75       3.39       4.60       7.99        0.01     0.01   0.662
  sub_90501                 12.08       0.00       0.14       0.33       5.01       2.02       7.03        0.01     0.01   0.582
  sub_90502                 12.08       0.00       0.13       0.65       3.79       3.96       7.75        0.01     0.01   0.642
  sub_90503                 12.08       0.00       0.14       0.36       4.89       2.22       7.11        0.01     0.01   0.588
  sub_90504                 12.08       0.00       0.14       0.34       4.98       2.06       7.05        0.01     0.01   0.584
  sub_90505                 12.08       0.00       0.14       0.39       4.76       2.42       7.18        0.01     0.01   0.595
  sub_90506                 12.08       0.00       0.14       0.43       4.62       2.64       7.26        0.01     0.01   0.601
  sub_90507                 12.08       0.00       0.13       0.45       4.54       2.76       7.31        0.01     0.01   0.605
  sub_90508                 12.08       0.00       0.14       0.44       4.60       2.68       7.28        0.01     0.01   0.603
  sub_90509                 12.08       0.00       0.13       0.90       2.80       5.54       8.34        0.01     0.01   0.691
  sub_90510                 12.08       0.00       0.14       0.41       4.71       2.50       7.21        0.01     0.01   0.597
  sub_90511                 12.08       0.00       0.13       0.70       3.59       4.28       7.87        0.00     0.00   0.652
  sub_90512                 12.08       0.00       0.13       0.46       4.50       2.84       7.34        0.01     0.01   0.608
  sub_90513                 12.08       0.00       0.14       0.32       5.06       1.95       7.00        0.01     0.02   0.580
  sub_90514                 12.08       0.00       0.14       0.42       4.66       2.59       7.24        0.01     0.01   0.600
  sub_90515                 12.08       0.00       0.13       0.74       3.43       4.53       7.97        0.01     0.01   0.660
  sub_90516                 12.08       0.00       0.13       1.03       2.30       6.34       8.64        0.01     0.01   0.715
  sub_90517                 12.08       0.00       0.13       0.75       3.40       4.58       7.98        0.01     0.01   0.661
  sub_90518                 12.08       0.00       0.14       0.22       5.42       1.37       6.79        0.00     0.00   0.562
  sub_90519                 12.08       0.00       0.13       0.83       3.08       5.09       8.17        0.02     0.02   0.677
  sub_90520                 12.08       0.00       0.13       0.81       3.17       4.96       8.12        0.01     0.01   0.673
  sub_90521                 12.08       0.00       0.13       0.48       4.45       2.92       7.37        0.00     0.01   0.610
  sub_90522                 12.08       0.00       0.14       0.38       4.81       2.34       7.15        0.00     0.00   0.592
  sub_90523                 12.08       0.00       0.13       0.47       4.46       2.90       7.36        0.01     0.01   0.609
  sub_90524                 12.08       0.00       0.13       0.80       3.22       4.88       8.09        0.01     0.01   0.670
  sub_90525                 12.08       0.00       0.13       1.00       2.42       6.14       8.56        0.02     0.02   0.709
  sub_90526                 12.08       0.00       0.13       0.80       3.18       4.93       8.12        0.01     0.01   0.672
  sub_90527                 12.08       0.00       0.13       1.04       2.28       6.37       8.65        0.01     0.01   0.716
  sub_90549                 12.08       0.00       0.13       0.75       3.38       4.62       8.00        0.01     0.01   0.662
  sub_90550                 12.08       0.00       0.14       0.00       6.28       0.00       6.28        0.00     0.00   0.520
  sub_90551                 12.08       0.00       0.13       0.88       2.88       5.41       8.29        0.01     0.01   0.686
  sub_90552                 12.08       0.00       0.14       0.36       4.89       2.21       7.10        0.02     0.03   0.588
  sub_90553                 12.08       0.00       0.13       0.85       3.02       5.18       8.21        0.00     0.00   0.680
  sub_90554                 12.08       0.00       0.13       0.80       3.18       4.93       8.11        0.01     0.01   0.672
  sub_90555                 12.08       0.00       0.13       0.98       2.50       6.02       8.52        0.01     0.01   0.705
  sub_90556                 12.08       0.00       0.13       1.08       2.14       6.60       8.73        0.01     0.01   0.723
  sub_90557                 12.08       0.00       0.13       0.55       4.15       3.40       7.54        0.01     0.01   0.625
  sub_90558                 12.08       0.00       0.13       0.56       4.13       3.43       7.56        0.01     0.02   0.626
  sub_90559                 12.08       0.00       0.13       0.88       2.90       5.38       8.28        0.01     0.01   0.686
  sub_90560                 12.08       0.00       0.13       0.72       3.49       4.44       7.93        0.01     0.01   0.657
  sub_90561                 12.08       0.00       0.13       0.64       3.80       3.95       7.75        0.01     0.01   0.642
  sub_90562                 12.08       0.00       0.13       0.60       3.98       3.66       7.64        0.01     0.01   0.633
  sub_90563                 12.08       0.00       0.13       0.56       4.11       3.45       7.57        0.01     0.01   0.626
  sub_90564                 12.08       0.00       0.13       0.49       4.40       2.99       7.39        0.01     0.01   0.612
  sub_90565                 12.08       0.00       0.13       0.69       3.61       4.26       7.86        0.01     0.01   0.651
  sub_90566                 12.08       0.00       0.13       0.71       3.54       4.37       7.90        0.01     0.01   0.654
  sub_90567                 12.08       0.00       0.13       0.85       3.02       5.20       8.21        0.01     0.01   0.680
  sub_90568                 12.08       0.00       0.14       0.00       6.28       0.00       6.28        0.00     0.00   0.520
  sub_90569                 12.08       0.00       0.13       0.78       3.27       4.79       8.06        0.01     0.01   0.667
  sub_90570                 12.08       0.00       0.13       0.93       2.69       5.71       8.40        0.00     0.00   0.696
  sub_90571                 12.08       0.00       0.13       0.50       4.35       3.07       7.42        0.01     0.01   0.614
  sub_90572                 12.08       0.00       0.13       0.50       4.37       3.05       7.41        0.01     0.01   0.614
  sub_90573                 12.08       0.00       0.14       0.33       5.00       2.04       7.04        0.01     0.01   0.583
  sub_90574                 12.08       0.00       0.14       0.38       4.83       2.32       7.14        0.01     0.01   0.591
  sub_90575                 12.08       0.00       0.13       0.62       3.90       3.79       7.69        0.01     0.01   0.637
  sub_90576                 12.08       0.00       0.13       0.67       3.69       4.12       7.81        0.01     0.01   0.647
  sub_90577                 12.08       0.00       0.13       0.65       3.77       4.00       7.77        0.01     0.01   0.643
  sub_90578                 12.08       0.00       0.13       0.57       4.09       3.49       7.58        0.01     0.01   0.627
  sub_90579                 12.08       0.00       0.13       0.48       4.45       2.92       7.37        0.01     0.01   0.610
  sub_90580                 12.08       0.00       0.13       0.99       2.47       6.06       8.53        0.01     0.01   0.707
  sub_90581                 12.08       0.00       0.13       0.80       3.21       4.89       8.10        0.01     0.01   0.670
  sub_90582                 12.08       0.00       0.13       0.63       3.87       3.84       7.71        0.01     0.01   0.638
  sub_90583                 12.08       0.00       0.13       0.78       3.27       4.79       8.06        0.01     0.01   0.668
  sub_90584                 12.08       0.00       0.14       0.44       4.59       2.69       7.28        0.01     0.01   0.603
  sub_90585                 12.08       0.00       0.14       0.44       4.60       2.68       7.28        0.01     0.01   0.603
  sub_90586                 12.08       0.00       0.13       0.48       4.43       2.95       7.38        0.01     0.01   0.611
  sub_90587                 12.08       0.00       0.13       0.53       4.24       3.25       7.49        0.01     0.01   0.620
  sub_90588                 12.08       0.00       0.14       0.36       4.88       2.24       7.11        0.01     0.01   0.589
  sub_90589                 12.08       0.00       0.13       0.60       3.99       3.65       7.64        0.01     0.01   0.633
  sub_90590                 12.08       0.00       0.13       0.57       4.07       3.52       7.59        0.01     0.01   0.628
  sub_90591                 12.08       0.00       0.14       0.39       4.78       2.39       7.17        0.01     0.01   0.594
  sub_90592                 12.08       0.00       0.14       0.38       4.82       2.32       7.14        0.01     0.01   0.592
  sub_90593                 12.08       0.00       0.13       0.51       4.31       3.14       7.45        0.01     0.01   0.617
  sub_90594                 12.08       0.00       0.13       0.63       3.84       3.88       7.72        0.01     0.01   0.639
  sub_90595                 12.08       0.00       0.13       0.64       3.82       3.92       7.74        0.01     0.01   0.641
  sub_90596                 12.08       0.00       0.14       0.36       4.89       2.22       7.11        0.01     0.01   0.588
  sub_90597                 12.08       0.00       0.13       0.85       3.01       5.21       8.22        0.01     0.01   0.680
  sub_90598                 12.08       0.00       0.13       0.84       3.03       5.17       8.20        0.00     0.01   0.679
  sub_90599                 12.08       0.00       0.13       0.62       3.90       3.80       7.69        0.00     0.00   0.637
  sub_90600                 12.08       0.00       0.13       0.56       4.11       3.45       7.57        0.00     0.00   0.626
  sub_90601                 12.08       0.00       0.13       0.94       2.66       5.76       8.42        0.01     0.01   0.697
  sub_90602                 12.08       0.00       0.13       0.70       3.59       4.28       7.87        0.01     0.01   0.652
  sub_90603                 12.08       0.00       0.13       0.89       2.86       5.44       8.30        0.01     0.01   0.688
  sub_90604                 12.08       0.00       0.13       0.59       4.00       3.63       7.63        0.01     0.01   0.632
  sub_90605                 12.08       0.00       0.13       0.58       4.03       3.58       7.61        0.01     0.01   0.630
  sub_90606                 12.08       0.00       0.13       0.66       3.75       4.02       7.78        0.01     0.01   0.644
  sub_90607                 12.08       0.00       0.13       0.68       3.66       4.18       7.83        0.01     0.01   0.649
  sub_90608                 12.08       0.00       0.13       0.81       3.14       5.00       8.14        0.01     0.01   0.674
  sub_90609                 12.08       0.00       0.13       0.96       2.59       5.87       8.46        0.01     0.01   0.701
  sub_90610                 12.08       0.00       0.13       0.93       2.70       5.69       8.40        0.01     0.01   0.695
  sub_90611                 12.08       0.00       0.13       0.83       3.08       5.09       8.17        0.00     0.00   0.677
  sub_90612                 12.08       0.00       0.13       0.94       2.67       5.75       8.42        0.01     0.01   0.697
  sub_90613                 12.08       0.00       0.13       1.00       2.43       6.13       8.56        0.01     0.01   0.709
  sub_90615                 12.08       0.00       0.13       0.85       3.00       5.22       8.22        0.01     0.01   0.681
  sub_90616                 12.08       0.00       0.14       0.44       4.60       2.67       7.27        0.01     0.01   0.602
  sub_90617                 12.08       0.00       0.13       0.56       4.11       3.46       7.57        0.01     0.01   0.627
  sub_90618                 12.08       0.00       0.14       0.36       4.88       2.23       7.11        0.01     0.02   0.589
  sub_90619                 12.08       0.00       0.14       0.06       6.06       0.36       6.41        0.00     0.01   0.531
  sub_90620                 12.08       0.00       0.14       0.38       4.81       2.34       7.15        0.00     0.01   0.592
  sub_90621                 12.08       0.00       0.13       0.81       3.17       4.95       8.12        0.02     0.02   0.672
  sub_90623                 12.08       0.00       0.13       0.69       3.62       4.24       7.86        0.01     0.02   0.650
  sub_90624                 12.08       0.00       0.13       0.67       3.71       4.09       7.80        0.00     0.00   0.646
  sub_90625                 12.08       0.00       0.13       0.57       4.09       3.49       7.58        0.01     0.01   0.627
  sub_90626                 12.08       0.00       0.13       0.51       4.33       3.11       7.44        0.01     0.01   0.616
  sub_90627                 12.08       0.00       0.13       0.90       2.82       5.51       8.33        0.01     0.01   0.690
  sub_90628                 12.08       0.00       0.13       0.74       3.45       4.51       7.96        0.02     0.02   0.659
  sub_90629                 12.08       0.00       0.13       0.85       2.99       5.24       8.23        0.01     0.01   0.681
  sub_90630                 12.08       0.00       0.14       0.36       4.89       2.21       7.10        0.01     0.01   0.588
  sub_90631                 12.08       0.00       0.13       0.56       4.11       3.46       7.57        0.01     0.01   0.626
  sub_90632                 12.08       0.00       0.13       0.58       4.03       3.58       7.61        0.01     0.01   0.630
  sub_90633                 12.08       0.00       0.14       0.36       4.90       2.20       7.10        0.01     0.01   0.588
  sub_90634                 12.08       0.00       0.13       0.54       4.19       3.33       7.52        0.00     0.01   0.623
  sub_90635                 12.08       0.00       0.13       0.80       3.22       4.88       8.09        0.01     0.01   0.670
  sub_90636                 12.08       0.00       0.13       0.60       3.96       3.69       7.65        0.01     0.01   0.634
  sub_90637                 12.08       0.00       0.13       0.56       4.13       3.42       7.55        0.01     0.01   0.625
  sub_90638                 12.08       0.00       0.14       0.33       5.03       2.00       7.02        0.01     0.01   0.582
  sub_90639                 12.08       0.00       0.13       0.85       3.00       5.22       8.22        0.01     0.01   0.681
  sub_90640                 12.08       0.00       0.14       0.43       4.63       2.62       7.26        0.01     0.01   0.601
  sub_90641                 12.08       0.00       0.13       0.53       4.25       3.23       7.48        0.01     0.01   0.619
  sub_90642                 12.08       0.00       0.13       0.66       3.72       4.07       7.80        0.01     0.01   0.645
  sub_90643                 12.08       0.00       0.14       0.43       4.64       2.61       7.25        0.01     0.02   0.600
  sub_90644                 12.08       0.00       0.14       0.37       4.86       2.26       7.12        0.01     0.01   0.590
  sub_90645                 12.08       0.00       0.13       0.52       4.27       3.20       7.47        0.00     0.00   0.619
  sub_90646                 12.08       0.00       0.13       0.98       2.51       6.00       8.51        0.01     0.01   0.705
  sub_90647                 12.08       0.00       0.12       1.35       1.10       8.25       9.35        0.01     0.01   0.774
  sub_90648                 12.08       0.00       0.14       0.35       4.92       2.17       7.09        0.00     0.01   0.587
  sub_90649                 12.08       0.00       0.13       0.52       4.27       3.20       7.47        0.01     0.01   0.619
  sub_90650                 12.08       0.00       0.13       0.51       4.30       3.15       7.45        0.02     0.02   0.617
  sub_90651                 12.08       0.00       0.14       0.42       4.65       2.60       7.25        0.01     0.01   0.600
  sub_90652                 12.08       0.00       0.13       0.54       4.22       3.29       7.50        0.01     0.01   0.621
  sub_90653                 12.08       0.00       0.13       0.65       3.77       4.00       7.77        0.01     0.01   0.643
  sub_90654                 12.08       0.00       0.13       0.75       3.40       4.58       7.98        0.00     0.00   0.661
  sub_90655                 12.08       0.00       0.13       0.48       4.42       2.97       7.39        0.01     0.01   0.611
  sub_90656                 12.08       0.00       0.13       0.86       2.97       5.28       8.24        0.01     0.01   0.682
  sub_90657                 12.08       0.00       0.13       0.90       2.80       5.54       8.34        0.01     0.01   0.691
  sub_90658                 12.08       0.00       0.13       0.52       4.29       3.17       7.46        0.01     0.01   0.618
  sub_90659                 12.08       0.00       0.12       1.18       1.73       7.24       8.97        0.01     0.01   0.743
  sub_90662                 12.08       0.00       0.13       0.60       3.96       3.70       7.66        0.00     0.00   0.634
  sub_90663                 12.08       0.00       0.13       0.82       3.10       5.06       8.16        0.02     0.02   0.676
  sub_90664                 12.08       0.00       0.12       1.63       0.00      10.00      10.00        0.00     0.00   0.828
  sub_90665                 12.08       0.00       0.13       0.76       3.35       4.67       8.02        0.01     0.01   0.664
  sub_90669                 12.08       0.00       0.13       0.62       3.91       3.78       7.69        0.00     0.00   0.636
  sub_90670                 12.08       0.00       0.13       0.45       4.54       2.77       7.31        0.00     0.01   0.605
  sub_90671                 12.08       0.00       0.13       0.50       4.37       3.04       7.41        0.00     0.00   0.614
  sub_90672                 12.08       0.00       0.13       0.66       3.74       4.04       7.78        0.01     0.01   0.645
  sub_90673                 12.08       0.00       0.13       0.84       3.04       5.15       8.20        0.01     0.01   0.679
  sub_90674                 12.08       0.00       0.14       0.24       5.34       1.49       6.84        0.01     0.01   0.566
  sub_90675                 12.08       0.00       0.14       0.37       4.85       2.27       7.13        0.01     0.01   0.590
  sub_90676                 12.08       0.00       0.13       0.55       4.17       3.36       7.53        0.01     0.01   0.624
  sub_90677                 12.08       0.00       0.13       0.80       3.20       4.91       8.11        0.00     0.01   0.671
  sub_90678                 12.08       0.00       0.13       0.72       3.52       4.40       7.92        0.01     0.01   0.655
  sub_90679                 12.08       0.00       0.13       0.79       3.24       4.84       8.08        0.01     0.01   0.669
  sub_90680                 12.08       0.00       0.13       0.45       4.54       2.78       7.31        0.01     0.01   0.606
  sub_90681                 12.08       0.00       0.13       0.80       3.19       4.92       8.11        0.00     0.01   0.671
  sub_90682                 12.08       0.00       0.13       0.72       3.50       4.42       7.92        0.01     0.01   0.656
  sub_90683                 12.08       0.00       0.12       1.19       1.70       7.30       8.99        0.01     0.01   0.745
  sub_90684                 12.08       0.00       0.14       0.27       5.26       1.63       6.89        0.00     0.00   0.570
  sub_90685                 12.08       0.00       0.14       0.19       5.53       1.19       6.72        0.00     0.00   0.557
  sub_90686                 12.08       0.00       0.13       0.72       3.52       4.40       7.92        0.00     0.00   0.655
  sub_90688                 12.08       0.00       0.13       0.54       4.19       3.33       7.52        0.00     0.01   0.623
  sub_90689                 12.08       0.00       0.13       0.87       2.93       5.33       8.26        0.00     0.00   0.684
  sub_90690                 12.08       0.00       0.13       0.68       3.66       4.18       7.84        0.00     0.00   0.649
  sub_90691                 12.08       0.00       0.13       0.59       4.02       3.59       7.62        0.00     0.01   0.631
  sub_90692                 12.08       0.00       0.13       0.51       4.33       3.11       7.44        0.00     0.00   0.616
  sub_90693                 12.08       0.00       0.13       0.96       2.59       5.88       8.47        0.00     0.00   0.701
  sub_90694                 12.08       0.00       0.12       1.31       1.22       8.06       9.28        0.00     0.00   0.768
  sub_90695                 12.08       0.00       0.13       0.73       3.46       4.50       7.95        0.00     0.00   0.659
  sub_90696                 12.08       0.00       0.13       0.82       3.14       5.00       8.14        0.00     0.00   0.674
  sub_90697                 12.08       0.00       0.13       0.84       3.05       5.14       8.19        0.00     0.00   0.678
  sub_90698                 12.08       0.00       0.13       0.95       2.63       5.80       8.44        0.00     0.00   0.699
  sub_90699                 12.08       0.00       0.12       1.12       1.95       6.89       8.84        0.00     0.00   0.732
  sub_90700                 12.08       0.00       0.14       0.31       5.09       1.90       6.99        0.00     0.00   0.579
  sub_90701                 12.08       0.00       0.14       0.29       5.17       1.76       6.94        0.00     0.00   0.574
  sub_90702                 12.08       0.00       0.14       0.33       5.03       2.00       7.02        0.00     0.00   0.582
  sub_90703                 12.08       0.00       0.13       0.84       3.06       5.13       8.19        0.01     0.01   0.678
  sub_90704                 12.08       0.00       0.13       0.81       3.18       4.94       8.12        0.01     0.01   0.672
  sub_90705                 12.08       0.00       0.13       0.87       2.93       5.34       8.27        0.01     0.01   0.684
  sub_90706                 12.08       0.00       0.13       0.60       3.98       3.66       7.64        0.00     0.00   0.633
  sub_90707                 12.08       0.00       0.14       0.40       4.75       2.44       7.19        0.00     0.00   0.595
  sub_90708                 12.08       0.00       0.13       0.97       2.55       5.94       8.49        0.01     0.01   0.703
  sub_90709                 12.08       0.00       0.13       0.72       3.52       4.40       7.92        0.01     0.01   0.655
  sub_90710                 12.08       0.00       0.13       0.94       2.68       5.74       8.41        0.01     0.01   0.697
  sub_90724                 12.08       0.00       0.13       0.98       2.51       6.00       8.51        0.00     0.00   0.705
  sub_90725                 12.08       0.00       0.12       1.63       0.00      10.00      10.00        0.00     0.00   0.828
  sub_90726                 12.08       0.00       0.12       1.63       0.00      10.00      10.00        0.00     0.00   0.828
  sub_90727                 12.08       0.00       0.12       1.63       0.00      10.00      10.00        0.00     0.00   0.828
  sub_90728                 12.08       0.00       0.12       1.63       0.00      10.00      10.00        0.01     0.00   0.828
  sub_90729                 12.08       0.00       0.12       1.63       0.00      10.00      10.00        0.00     0.00   0.828
  sub_90730                 12.08       0.00       0.12       1.63       0.00      10.00      10.00        0.01     0.00   0.828
  sub_90731                 12.08       0.00       0.12       1.63       0.00      10.00      10.00        0.01     0.01   0.828
  sub_90732                 12.08       0.00       0.12       1.63       0.00      10.00      10.00        0.00     0.00   0.828
  sub_90733                 12.08       0.00       0.13       0.48       4.43       2.94       7.37        0.00     0.00   0.611
  
  
  ******************
  Node Depth Summary
  ******************
  
  ---------------------------------------------------------------------------------
                                 Average  Maximum  Maximum  Time of Max    Reported
                                   Depth    Depth      HGL   Occurrence   Max Depth
  Node                 Type       Meters   Meters   Meters  days hr:min      Meters
  ---------------------------------------------------------------------------------
  j_9006F              JUNCTION     0.04     0.27    -0.09     0  02:26        0.26
  j_90334              JUNCTION     0.02     0.13    -0.08     0  02:20        0.13
  j_90335              JUNCTION     0.03     0.25    -0.16     0  02:25        0.25
  j_90336              JUNCTION     0.03     0.21     0.04     0  02:25        0.21
  j_90363              JUNCTION     0.06     0.24    -0.11     0  02:20        0.24
  j_90364              JUNCTION     0.06     0.24    -0.11     0  02:20        0.24
  j_90365              JUNCTION     0.06     0.24    -0.11     0  02:20        0.24
  j_90366              JUNCTION     0.02     0.16    -0.15     0  02:25        0.16
  j_90367              JUNCTION     0.05     0.34    -0.15     0  02:25        0.34
  j_90368              JUNCTION     0.01     0.14    -0.15     0  02:25        0.13
  j_90369              JUNCTION     0.02     0.14    -0.16     0  02:25        0.14
  j_90370              JUNCTION     0.06     0.34    -0.17     0  02:25        0.34
  j_90371              JUNCTION     0.07     0.38    -0.18     0  02:25        0.38
  j_90372              JUNCTION     0.01     0.08    -0.17     0  02:26        0.07
  j_90373              JUNCTION     0.04     0.30    -0.17     0  02:25        0.29
  j_90374              JUNCTION     0.01     0.11    -0.17     0  02:25        0.11
  j_90375              JUNCTION     0.02     0.17    -0.17     0  02:25        0.17
  j_90376              JUNCTION     0.01     0.07    -0.08     0  02:20        0.07
  j_90377              JUNCTION     0.01     0.07    -0.10     0  02:20        0.07
  j_90378              JUNCTION     0.02     0.17    -0.23     0  02:20        0.16
  j_90379              JUNCTION     0.02     0.11    -0.14     0  02:20        0.11
  j_90380              JUNCTION     0.02     0.13    -0.20     0  02:20        0.13
  j_90381              JUNCTION     0.04     0.20    -0.25     0  02:20        0.19
  j_90382              JUNCTION     0.10     0.56    -0.36     0  02:26        0.54
  j_90383              JUNCTION     0.09     0.50    -0.32     0  02:26        0.49
  j_90384              JUNCTION     0.06     0.23    -0.23     0  02:20        0.23
  j_90385              JUNCTION     0.02     0.14    -0.23     0  02:20        0.14
  j_90386              JUNCTION     0.02     0.11    -0.12     0  02:20        0.11
  j_90387              JUNCTION     0.01     0.09    -0.11     0  02:20        0.08
  j_90388              JUNCTION     0.05     0.19    -0.20     0  02:25        0.19
  j_90389              JUNCTION     0.08     0.38    -0.23     0  02:25        0.37
  j_90390              JUNCTION     0.06     0.37    -0.20     0  02:25        0.37
  j_90391              JUNCTION     0.05     0.23    -0.01     0  02:25        0.23
  j_90392              JUNCTION     0.06     0.26     0.01     0  02:25        0.26
  j_90393              JUNCTION     0.04     0.22     0.03     0  02:25        0.22
  j_90394              JUNCTION     0.02     0.15     0.05     0  02:25        0.15
  j_90395              JUNCTION     0.02     0.13     0.05     0  02:25        0.13
  j_90396              JUNCTION     0.01     0.08     0.06     0  02:25        0.08
  j_90397              JUNCTION     0.09     0.49    -0.28     0  02:26        0.49
  j_90398              JUNCTION     0.05     0.35    -0.27     0  02:25        0.34
  j_90399              JUNCTION     0.02     0.10    -0.21     0  02:20        0.10
  j_90400              JUNCTION     0.01     0.06    -0.20     0  02:20        0.06
  j_90401              JUNCTION     0.02     0.10    -0.21     0  02:20        0.09
  j_90402              JUNCTION     0.01     0.11    -0.25     0  02:20        0.10
  j_90403              JUNCTION     0.01     0.05    -0.20     0  02:20        0.05
  j_90404              JUNCTION     0.02     0.10    -0.20     0  02:20        0.10
  j_90405              JUNCTION     0.04     0.29    -0.27     0  02:25        0.29
  j_90406              JUNCTION     0.03     0.24    -0.26     0  02:25        0.23
  j_90407              JUNCTION     0.02     0.14    -0.27     0  02:25        0.14
  j_90408              JUNCTION     0.02     0.13    -0.19     0  02:20        0.12
  j_90427              JUNCTION     0.06     0.36    -0.07     0  02:25        0.36
  j_90428              JUNCTION     0.04     0.30    -0.07     0  02:25        0.30
  j_90430              JUNCTION     0.03     0.15    -1.42     0  02:26        0.15
  j_90433              JUNCTION     0.03     0.16    -0.21     0  02:24        0.16
  j_90434              JUNCTION     0.06     0.22    -0.21     0  02:25        0.22
  j_90435              JUNCTION     0.03     0.13    -0.24     0  02:25        0.13
  j_90436              JUNCTION     0.04     0.22    -0.24     0  02:21        0.21
  j_90437              JUNCTION     0.13     0.62    -0.74     0  02:26        0.61
  j_90438              JUNCTION     0.16     0.73    -0.62     0  02:26        0.71
  j_90439              JUNCTION     0.02     0.11    -0.10     0  02:20        0.11
  j_90440              JUNCTION     0.01     0.10    -0.06     0  02:20        0.10
  j_90441              JUNCTION     0.01     0.07    -0.06     0  02:20        0.07
  j_90442              JUNCTION     0.11     0.49    -0.15     0  02:25        0.49
  j_90443              JUNCTION     0.16     0.75    -0.55     0  02:26        0.74
  j_90444              JUNCTION     0.10     0.61    -0.50     0  02:26        0.59
  j_90445              JUNCTION     0.03     0.17    -0.26     0  02:20        0.17
  j_90446              JUNCTION     0.02     0.14    -0.22     0  02:20        0.14
  j_90447              JUNCTION     0.02     0.12    -0.13     0  02:20        0.12
  j_90448              JUNCTION     0.01     0.11    -0.16     0  02:20        0.11
  j_90449              JUNCTION     0.03     0.15    -0.33     0  02:20        0.15
  j_90450              JUNCTION     0.02     0.12    -0.35     0  02:20        0.12
  j_90451              JUNCTION     0.10     0.56    -0.46     0  02:26        0.54
  j_90452              JUNCTION     0.02     0.14    -0.28     0  02:20        0.14
  j_90453              JUNCTION     0.10     0.56    -0.40     0  02:26        0.54
  j_90454              JUNCTION     0.02     0.16    -0.31     0  02:20        0.15
  j_90455              JUNCTION     0.04     0.18    -0.36     0  02:24        0.18
  j_90456              JUNCTION     0.05     0.27    -0.39     0  02:24        0.27
  j_90457              JUNCTION     0.07     0.32    -0.44     0  02:23        0.32
  j_90459              JUNCTION     0.09     0.53    -0.52     0  02:26        0.51
  j_90460              JUNCTION     0.06     0.46    -0.50     0  02:26        0.44
  j_90461              JUNCTION     0.12     0.58    -0.50     0  02:26        0.56
  j_90462              JUNCTION     0.09     0.52    -0.46     0  02:26        0.50
  j_90463              JUNCTION     0.05     0.32    -0.41     0  02:26        0.31
  j_90464              JUNCTION     0.03     0.23    -0.40     0  02:25        0.22
  j_90465              JUNCTION     0.03     0.17    -0.37     0  02:22        0.17
  j_90466              JUNCTION     0.02     0.14    -0.30     0  02:21        0.14
  j_90467              JUNCTION     0.03     0.19    -0.23     0  02:20        0.18
  j_90468              JUNCTION     0.05     0.26    -0.26     0  02:20        0.26
  j_90469              JUNCTION     0.04     0.24    -0.32     0  02:25        0.24
  j_90470              JUNCTION     0.05     0.32    -0.35     0  02:25        0.32
  j_90471              JUNCTION     0.05     0.34    -0.36     0  02:25        0.33
  j_90477              JUNCTION     0.02     0.19    -0.12     0  02:25        0.18
  j_90478              JUNCTION     0.05     0.30    -0.11     0  02:27        0.29
  j_90479              JUNCTION     0.03     0.21    -0.11     0  02:27        0.20
  j_90480              JUNCTION     0.02     0.14    -0.11     0  02:25        0.14
  j_90481              JUNCTION     0.05     0.30    -0.10     0  02:26        0.29
  j_90482              JUNCTION     0.06     0.35    -0.10     0  02:27        0.34
  j_90483              JUNCTION     0.03     0.18    -0.10     0  02:25        0.17
  j_90484              JUNCTION     0.02     0.13    -0.07     0  02:25        0.13
  j_90485              JUNCTION     0.04     0.26    -0.07     0  02:25        0.26
  j_90486              JUNCTION     0.07     0.39    -0.07     0  02:25        0.39
  j_90487              JUNCTION     0.07     0.43    -0.09     0  02:25        0.43
  j_90488              JUNCTION     0.10     0.48    -0.12     0  02:25        0.48
  j_90489              JUNCTION     0.02     0.12    -0.11     0  02:25        0.11
  j_90490              JUNCTION     0.03     0.20    -0.11     0  02:27        0.20
  j_90491              JUNCTION     0.09     0.44    -0.10     0  02:26        0.43
  j_90492              JUNCTION     0.11     0.51    -0.11     0  02:25        0.51
  j_90493              JUNCTION     0.03     0.20    -0.12     0  02:28        0.20
  j_90494              JUNCTION     0.13     0.71    -0.03     0  02:20        0.61
  j_90495              JUNCTION     0.13     0.60    -0.11     0  02:25        0.60
  j_90496              JUNCTION     0.04     0.21    -0.11     0  02:26        0.21
  j_90497              JUNCTION     0.01     0.07    -0.11     0  02:29        0.07
  j_90498              JUNCTION     0.06     0.36    -0.12     0  02:25        0.36
  j_90499              JUNCTION     0.07     0.36    -0.11     0  02:25        0.36
  j_90500              JUNCTION     0.04     0.28    -0.10     0  02:25        0.27
  j_90501              JUNCTION     0.03     0.18    -0.09     0  02:26        0.17
  j_90502              JUNCTION     0.02     0.14    -0.09     0  02:26        0.13
  j_90503              JUNCTION     0.02     0.14    -0.09     0  02:26        0.13
  j_90504              JUNCTION     0.04     0.19    -0.09     0  02:25        0.19
  j_90505              JUNCTION     0.07     0.40    -0.10     0  02:25        0.40
  j_90506              JUNCTION     0.08     0.42    -0.09     0  02:25        0.42
  j_90507              JUNCTION     0.04     0.28    -0.09     0  02:25        0.28
  j_90508              JUNCTION     0.06     0.36    -0.09     0  02:25        0.35
  j_90509              JUNCTION     0.02     0.16    -0.09     0  02:26        0.16
  j_90510              JUNCTION     0.03     0.26    -0.05     0  02:25        0.26
  j_90511              JUNCTION     0.12     0.55    -0.04     0  02:25        0.54
  j_90512              JUNCTION     0.10     0.50    -0.04     0  02:25        0.49
  j_90513              JUNCTION     0.02     0.20    -0.06     0  02:25        0.20
  j_90514              JUNCTION     0.03     0.21    -0.11     0  02:25        0.21
  j_90515              JUNCTION     0.05     0.27    -0.14     0  02:25        0.27
  j_90516              JUNCTION     0.06     0.23    -0.21     0  02:25        0.23
  j_90517              JUNCTION     0.09     0.50    -0.42     0  02:26        0.49
  j_90518              JUNCTION     0.09     0.48    -0.40     0  02:25        0.48
  j_90519              JUNCTION     0.08     0.45    -0.38     0  02:25        0.45
  j_90520              JUNCTION     0.04     0.23    -0.12     0  02:20        0.22
  j_90521              JUNCTION     0.02     0.14    -0.10     0  02:20        0.14
  j_90522              JUNCTION     0.04     0.17    -0.10     0  02:20        0.17
  j_90523              JUNCTION     0.02     0.15    -0.05     0  02:20        0.15
  j_90524              JUNCTION     0.07     0.42    -0.03     0  02:25        0.42
  j_90525              JUNCTION     0.05     0.33    -0.02     0  02:25        0.33
  j_90526              JUNCTION     0.03     0.25    -0.01     0  02:25        0.24
  j_90527              JUNCTION     0.02     0.17    -0.01     0  02:25        0.16
  j_90549              JUNCTION     0.03     0.18    -0.23     0  02:20        0.18
  j_90550              JUNCTION     0.19     0.70    -0.53     0  02:31        0.69
  j_90551              JUNCTION     0.01     0.07     0.12     0  02:19        0.07
  j_90553              JUNCTION     0.06     0.25    -0.13     0  02:30        0.25
  j_90554              JUNCTION     0.04     0.21    -0.13     0  02:30        0.21
  j_90555              JUNCTION     0.02     0.13    -0.11     0  02:20        0.13
  j_90556              JUNCTION     0.05     0.24    -0.13     0  02:30        0.24
  j_90557              JUNCTION     0.06     0.25    -0.13     0  02:29        0.25
  j_90558              JUNCTION     0.13     0.57    -0.14     0  02:30        0.57
  j_90559              JUNCTION     0.08     0.44    -0.14     0  02:25        0.44
  j_90560              JUNCTION     0.08     0.43    -0.13     0  02:25        0.43
  j_90561              JUNCTION     0.04     0.27    -0.11     0  02:27        0.26
  j_90562              JUNCTION     0.07     0.33    -0.12     0  02:27        0.33
  j_90563              JUNCTION     0.11     0.55    -0.15     0  02:29        0.55
  j_90564              JUNCTION     0.15     0.66    -0.15     0  02:30        0.66
  j_90565              JUNCTION     0.03     0.19    -0.15     0  02:30        0.19
  j_90566              JUNCTION     0.01     0.08    -0.12     0  02:19        0.08
  j_90567              JUNCTION     0.01     0.09     0.12     0  02:19        0.09
  j_90568              JUNCTION     0.18     0.71    -0.40     0  02:30        0.71
  j_90569              JUNCTION     0.05     0.19    -0.13     0  02:20        0.19
  j_90570              JUNCTION     0.01     0.07    -0.01     0  02:19        0.07
  j_90571              JUNCTION     0.04     0.27    -0.16     0  02:28        0.27
  j_90572              JUNCTION     0.17     0.70    -0.16     0  02:29        0.70
  j_90573              JUNCTION     0.03     0.19    -0.15     0  02:30        0.19
  j_90574              JUNCTION     0.15     0.65    -0.15     0  02:30        0.65
  j_90575              JUNCTION     0.19     0.74    -0.17     0  02:30        0.74
  j_90576              JUNCTION     0.17     0.69    -0.23     0  02:30        0.69
  j_90577              JUNCTION     0.18     0.71    -0.27     0  02:30        0.71
  j_90578              JUNCTION     0.16     0.68    -0.27     0  02:30        0.68
  j_90579              JUNCTION     0.13     0.62    -0.26     0  02:28        0.61
  j_90580              JUNCTION     0.01     0.10    -0.03     0  02:20        0.10
  j_90581              JUNCTION     0.02     0.14    -0.10     0  02:20        0.14
  j_90582              JUNCTION     0.02     0.14    -0.10     0  02:20        0.13
  j_90583              JUNCTION     0.02     0.15    -0.16     0  02:30        0.15
  j_90584              JUNCTION     0.04     0.21    -0.14     0  02:25        0.21
  j_90585              JUNCTION     0.15     0.67    -0.16     0  02:30        0.67
  j_90586              JUNCTION     0.16     0.68    -0.14     0  02:27        0.68
  j_90587              JUNCTION     0.15     0.66    -0.13     0  02:26        0.65
  j_90588              JUNCTION     0.03     0.23    -0.13     0  02:25        0.23
  j_90589              JUNCTION     0.02     0.17    -0.11     0  02:25        0.17
  j_90590              JUNCTION     0.02     0.16    -0.09     0  02:26        0.16
  j_90591              JUNCTION     0.11     0.55    -0.06     0  02:25        0.55
  j_90592              JUNCTION     0.13     0.58    -0.09     0  02:26        0.58
  j_90593              JUNCTION     0.15     0.67    -0.12     0  02:26        0.66
  j_90594              JUNCTION     0.12     0.58    -0.12     0  02:26        0.58
  j_90595              JUNCTION     0.04     0.22    -0.12     0  02:26        0.21
  j_90596              JUNCTION     0.03     0.20    -0.12     0  02:26        0.20
  j_90597              JUNCTION     0.03     0.17    -0.11     0  02:25        0.17
  j_90598              JUNCTION     0.02     0.14    -0.11     0  02:26        0.13
  j_90599              JUNCTION     0.04     0.19    -0.10     0  02:20        0.19
  j_90600              JUNCTION     0.02     0.14    -0.08     0  02:20        0.14
  j_90601              JUNCTION     0.02     0.12    -0.05     0  02:20        0.12
  j_90602              JUNCTION     0.03     0.17    -0.10     0  02:25        0.17
  j_90603              JUNCTION     0.03     0.19    -0.10     0  02:25        0.19
  j_90604              JUNCTION     0.04     0.26    -0.10     0  02:25        0.25
  j_90605              JUNCTION     0.07     0.35    -0.11     0  02:25        0.35
  j_90606              JUNCTION     0.07     0.33    -0.10     0  02:25        0.33
  j_90607              JUNCTION     0.05     0.28    -0.10     0  02:25        0.28
  j_90608              JUNCTION     0.04     0.24    -0.10     0  02:25        0.24
  j_90609              JUNCTION     0.01     0.08    -0.09     0  02:25        0.08
  j_90610              JUNCTION     0.02     0.13    -0.09     0  02:25        0.13
  j_90611              JUNCTION     0.03     0.17    -0.10     0  02:25        0.17
  j_90612              JUNCTION     0.02     0.14    -0.07     0  02:20        0.13
  j_90613              JUNCTION     0.01     0.09    -0.01     0  02:20        0.09
  j_90615              JUNCTION     0.02     0.13    -0.16     0  02:19        0.13
  j_90616              JUNCTION     0.02     0.16    -0.16     0  02:20        0.16
  j_90617              JUNCTION     0.01     0.09    -0.14     0  02:20        0.09
  j_90618              JUNCTION     0.03     0.18    -0.19     0  02:20        0.17
  j_90619              JUNCTION     0.18     0.72    -0.28     0  02:30        0.72
  j_90620              JUNCTION     0.21     0.78    -0.27     0  02:30        0.78
  j_90621              JUNCTION     0.18     0.71    -0.27     0  02:30        0.71
  j_90623              JUNCTION     0.15     0.65    -0.25     0  02:30        0.65
  j_90624              JUNCTION     0.10     0.54    -0.25     0  02:30        0.54
  j_90625              JUNCTION     0.08     0.47    -0.23     0  02:30        0.47
  j_90626              JUNCTION     0.12     0.58    -0.24     0  02:30        0.58
  j_90627              JUNCTION     0.15     0.64    -0.24     0  02:30        0.64
  j_90628              JUNCTION     0.04     0.20    -0.21     0  02:20        0.20
  j_90629              JUNCTION     0.02     0.16    -0.19     0  02:20        0.15
  j_90630              JUNCTION     0.02     0.13    -0.06     0  02:20        0.13
  j_90631              JUNCTION     0.04     0.20    -0.22     0  02:30        0.20
  j_90632              JUNCTION     0.04     0.23    -0.22     0  02:30        0.23
  j_90633              JUNCTION     0.04     0.26    -0.22     0  02:31        0.26
  j_90634              JUNCTION     0.17     0.66    -0.22     0  02:31        0.65
  j_90635              JUNCTION     0.09     0.48    -0.22     0  02:30        0.47
  j_90636              JUNCTION     0.07     0.35    -0.22     0  02:30        0.35
  j_90637              JUNCTION     0.10     0.50    -0.21     0  02:31        0.50
  j_90638              JUNCTION     0.06     0.27    -0.21     0  02:30        0.27
  j_90639              JUNCTION     0.04     0.22    -0.18     0  02:21        0.21
  j_90640              JUNCTION     0.02     0.11    -0.18     0  02:20        0.11
  j_90641              JUNCTION     0.12     0.58    -0.26     0  02:29        0.57
  j_90642              JUNCTION     0.08     0.47    -0.26     0  02:27        0.46
  j_90643              JUNCTION     0.08     0.46    -0.26     0  02:28        0.46
  j_90644              JUNCTION     0.02     0.12    -0.03     0  02:20        0.12
  j_90645              JUNCTION     0.01     0.05     0.12     0  02:20        0.05
  j_90646              JUNCTION     0.04     0.16     0.06     0  02:20        0.16
  j_90647              JUNCTION     0.01     0.08     0.11     0  02:20        0.08
  j_90648              JUNCTION     0.02     0.15    -0.14     0  02:20        0.14
  j_90649              JUNCTION     0.02     0.15    -0.06     0  02:20        0.15
  j_90650              JUNCTION     0.04     0.23    -0.15     0  02:21        0.21
  j_90651              JUNCTION     0.03     0.23    -0.21     0  02:30        0.22
  j_90652              JUNCTION     0.03     0.21    -0.21     0  02:31        0.20
  j_90653              JUNCTION     0.01     0.08    -0.16     0  02:20        0.08
  j_90654              JUNCTION     0.09     0.45    -0.15     0  02:28        0.44
  j_90655              JUNCTION     0.11     0.49    -0.17     0  02:30        0.49
  j_90656              JUNCTION     0.11     0.50    -0.19     0  02:30        0.50
  j_90657              JUNCTION     0.01     0.08     0.31     0  02:20        0.08
  j_90658              JUNCTION     0.02     0.12     0.25     0  02:20        0.12
  j_90659              JUNCTION     0.02     0.13     0.15     0  02:20        0.13
  j_90662              JUNCTION     0.01     0.10    -0.22     0  02:20        0.10
  j_90663              JUNCTION     0.05     0.30    -0.13     0  02:25        0.29
  j_90664              JUNCTION     0.01     0.13    -0.14     0  02:20        0.12
  j_90665              JUNCTION     0.17     0.70    -0.27     0  02:30        0.70
  j_90669              JUNCTION     0.08     0.33     0.10     0  02:25        0.33
  j_90670              JUNCTION     0.09     0.35     0.10     0  02:25        0.35
  j_90671              JUNCTION     0.10     0.36     0.10     0  02:25        0.36
  j_90672              JUNCTION     0.06     0.33    -0.13     0  02:28        0.33
  j_90673              JUNCTION     0.09     0.40    -0.13     0  02:28        0.40
  j_90674              JUNCTION     0.10     0.45    -0.15     0  02:28        0.45
  j_90675              JUNCTION     0.07     0.30     0.08     0  02:25        0.30
  j_90676              JUNCTION     0.08     0.34     0.10     0  02:25        0.34
  j_90677              JUNCTION     0.11     0.39     0.10     0  02:25        0.39
  j_90678              JUNCTION     0.03     0.20     0.10     0  02:25        0.20
  j_90679              JUNCTION     0.02     0.13     0.11     0  02:24        0.13
  j_90680              JUNCTION     0.06     0.33     0.03     0  02:25        0.33
  j_90681              JUNCTION     0.08     0.35    -0.03     0  02:25        0.35
  j_90682              JUNCTION     0.01     0.06     0.03     0  02:20        0.06
  j_90683              JUNCTION     0.07     0.36    -0.09     0  02:26        0.35
  j_90684              JUNCTION     0.04     0.27    -0.09     0  02:26        0.26
  j_90685              JUNCTION     0.01     0.06     0.17     0  02:20        0.06
  j_90686              JUNCTION     0.05     0.31    -0.09     0  02:26        0.30
  j_90688              JUNCTION     0.01     0.07     0.52     0  02:20        0.07
  j_90689              JUNCTION     0.03     0.15    -0.15     0  02:21        0.14
  j_90690              JUNCTION     0.02     0.13    -0.12     0  02:21        0.13
  j_90691              JUNCTION     0.01     0.08     0.18     0  02:20        0.08
  j_90692              JUNCTION     0.01     0.05     0.25     0  02:20        0.05
  j_90693              JUNCTION     0.01     0.04     0.07     0  02:20        0.04
  j_90694              JUNCTION     0.01     0.07     0.13     0  02:20        0.07
  j_90695              JUNCTION     0.01     0.06     0.56     0  02:20        0.05
  j_90696              JUNCTION     0.01     0.09     0.09     0  02:20        0.08
  j_90697              JUNCTION     0.02     0.11     0.04     0  02:20        0.11
  j_90698              JUNCTION     0.02     0.12     0.00     0  02:20        0.11
  j_90699              JUNCTION     0.02     0.13    -0.05     0  02:21        0.12
  j_90700              JUNCTION     0.01     0.04     0.54     0  02:20        0.04
  j_90701              JUNCTION     0.01     0.03     0.53     0  02:20        0.03
  j_90702              JUNCTION     0.01     0.03     0.53     0  02:20        0.03
  j_90703              JUNCTION     0.07     0.38    -0.10     0  02:26        0.37
  j_90704              JUNCTION     0.02     0.14    -0.08     0  02:25        0.14
  j_90705              JUNCTION     0.02     0.17    -0.09     0  02:26        0.15
  j_90706              JUNCTION     0.09     0.50    -0.04     0  02:25        0.49
  j_90707              JUNCTION     0.05     0.34    -0.04     0  02:25        0.33
  j_90708              JUNCTION     0.02     0.10    -0.01     0  02:20        0.10
  j_90709              JUNCTION     0.02     0.17    -0.03     0  02:25        0.16
  j_90710              JUNCTION     0.01     0.10     0.05     0  02:20        0.10
  j_90724              JUNCTION     0.10     0.36     0.10     0  02:25        0.36
  j_90725              JUNCTION     0.01     0.10     0.10     0  02:26        0.10
  j_90726              JUNCTION     0.01     0.06     0.11     0  02:25        0.05
  j_90727              JUNCTION     0.00     0.03     0.13     0  02:20        0.03
  j_90728              JUNCTION     0.01     0.07     0.13     0  02:20        0.07
  j_90729              JUNCTION     0.01     0.04     0.27     0  02:20        0.04
  j_90730              JUNCTION     0.03     0.18     0.10     0  02:25        0.18
  j_90731              JUNCTION     0.01     0.07     0.17     0  02:20        0.07
  j_90732              JUNCTION     0.00     0.03     0.18     0  02:20        0.03
  j_90733              JUNCTION     0.04     0.24     0.10     0  02:25        0.24
  j_91272              JUNCTION     0.00     0.00     0.17     0  00:00        0.00
  j_91273              JUNCTION     0.00     0.00     0.47     0  00:00        0.00
  j_91274              JUNCTION     0.00     0.00     0.23     0  00:00        0.00
  j_91275              JUNCTION     0.00     0.00     0.47     0  00:00        0.00
  j_91276              JUNCTION     0.00     0.00     0.28     0  00:00        0.00
  j_91277              JUNCTION     0.00     0.00     0.51     0  00:00        0.00
  j_91278              JUNCTION     0.00     0.00     0.35     0  00:00        0.00
  j_91279              JUNCTION     0.00     0.00     0.50     0  00:00        0.00
  j_91292              JUNCTION     0.00     0.00    -0.01     0  00:00        0.00
  j_91293              JUNCTION     0.00     0.06    -0.17     0  02:25        0.06
  j_91294              JUNCTION     0.00     0.00     0.31     0  00:00        0.00
  j_90552              OUTFALL      0.00     0.00    -1.29     0  00:00        0.00
  j_90431              OUTFALL      0.03     0.15    -1.46     0  02:27        0.15
  
  
  *******************
  Node Inflow Summary
  *******************
  
  -------------------------------------------------------------------------------------------------
                                  Maximum  Maximum                  Lateral       Total        Flow
                                  Lateral    Total  Time of Max      Inflow      Inflow     Balance
                                   Inflow   Inflow   Occurrence      Volume      Volume       Error
  Node                 Type           CMS      CMS  days hr:min    10^6 ltr    10^6 ltr     Percent
  -------------------------------------------------------------------------------------------------
  j_9006F              JUNCTION     0.003    0.007     0  02:21     0.00293     0.00329       0.000
  j_90334              JUNCTION     0.010    0.010     0  02:20      0.0111      0.0111       0.000
  j_90335              JUNCTION     0.017    0.017     0  02:20      0.0136      0.0136       0.000
  j_90336              JUNCTION     0.003    0.010     0  02:25     0.00273       0.012       0.000
  j_90363              JUNCTION     0.019    0.019     0  02:20      0.0152      0.0152       0.000
  j_90364              JUNCTION     0.005    0.035     0  02:19     0.00498      0.0322       0.127
  j_90365              JUNCTION     0.001    0.002     0  02:19    0.000899     0.00104       5.356
  j_90366              JUNCTION     0.006    0.006     0  02:20     0.00535     0.00535       0.000
  j_90367              JUNCTION     0.006    0.042     0  02:20     0.00546      0.0429       0.078
  j_90368              JUNCTION     0.000    0.001     0  02:19           0     0.00023       1.121
  j_90369              JUNCTION     0.014    0.014     0  02:20      0.0126      0.0126       0.000
  j_90370              JUNCTION     0.007    0.036     0  02:19     0.00533      0.0314      -0.364
  j_90371              JUNCTION     0.009    0.076     0  02:23     0.00667      0.0986       0.012
  j_90372              JUNCTION     0.003    0.003     0  02:20     0.00328     0.00328       0.000
  j_90373              JUNCTION     0.006    0.017     0  02:20     0.00444      0.0177      -0.134
  j_90374              JUNCTION     0.000    0.003     0  02:22           0    0.000863       0.000
  j_90375              JUNCTION     0.008    0.012     0  02:20     0.00597      0.0106       0.112
  j_90376              JUNCTION     0.001    0.004     0  02:20     0.00106     0.00395       0.000
  j_90377              JUNCTION     0.006    0.011     0  02:20     0.00502     0.00897      -0.495
  j_90378              JUNCTION     0.007    0.017     0  02:20     0.00572      0.0149       0.000
  j_90379              JUNCTION     0.010    0.010     0  02:20     0.00916     0.00916      -0.180
  j_90380              JUNCTION     0.012    0.012     0  02:20      0.0102      0.0102       0.000
  j_90381              JUNCTION     0.007    0.018     0  02:20     0.00616      0.0164       0.479
  j_90382              JUNCTION     0.008    0.167     0  02:25     0.00717       0.242      -0.010
  j_90383              JUNCTION     0.007    0.154     0  02:25     0.00602       0.218      -0.007
  j_90384              JUNCTION     0.004    0.019     0  02:20     0.00373      0.0177       0.128
  j_90385              JUNCTION     0.006    0.016     0  02:20     0.00471       0.014       0.084
  j_90386              JUNCTION     0.010    0.010     0  02:20     0.00926     0.00926      -0.153
  j_90387              JUNCTION     0.007    0.007     0  02:20     0.00575     0.00575       0.000
  j_90388              JUNCTION     0.004    0.011     0  02:20     0.00352      0.0093       2.244
  j_90389              JUNCTION     0.005    0.112     0  02:25     0.00476       0.151       0.000
  j_90390              JUNCTION     0.003    0.083     0  02:25      0.0027        0.11      -0.027
  j_90391              JUNCTION     0.004    0.027     0  02:25       0.004      0.0356       0.014
  j_90392              JUNCTION     0.008    0.024     0  02:25     0.00744      0.0316       0.122
  j_90393              JUNCTION     0.013    0.019     0  02:25      0.0122      0.0242      -0.091
  j_90394              JUNCTION     0.004    0.008     0  02:20     0.00383     0.00927      -0.092
  j_90395              JUNCTION     0.005    0.006     0  02:20       0.004     0.00543      -0.142
  j_90396              JUNCTION     0.002    0.002     0  02:19     0.00144     0.00144       0.758
  j_90397              JUNCTION     0.006    0.138     0  02:25     0.00522       0.194      -0.005
  j_90398              JUNCTION     0.006    0.033     0  02:20     0.00594      0.0385      -0.212
  j_90399              JUNCTION     0.007    0.009     0  02:20     0.00566     0.00819       1.312
  j_90400              JUNCTION     0.004    0.005     0  02:20     0.00368      0.0043      -0.196
  j_90401              JUNCTION     0.007    0.009     0  02:20     0.00547     0.00726      -0.071
  j_90402              JUNCTION     0.007    0.008     0  02:20      0.0055     0.00646       0.000
  j_90403              JUNCTION     0.004    0.004     0  02:20     0.00346     0.00346      -0.234
  j_90404              JUNCTION     0.007    0.008     0  02:20     0.00566     0.00755       1.493
  j_90405              JUNCTION     0.007    0.023     0  02:20     0.00616      0.0244       0.023
  j_90406              JUNCTION     0.006    0.018     0  02:20     0.00593      0.0182      -0.561
  j_90407              JUNCTION     0.005    0.006     0  02:20     0.00459     0.00479      -0.219
  j_90408              JUNCTION     0.014    0.014     0  02:20      0.0113      0.0113      -0.134
  j_90427              JUNCTION     0.014    0.023     0  02:20      0.0121      0.0261       0.000
  j_90428              JUNCTION     0.008    0.016     0  02:20     0.00715       0.014       0.056
  j_90430              JUNCTION     0.004    0.565     0  02:27     0.00349       0.879       0.007
  j_90433              JUNCTION     0.002    0.002     0  02:20     0.00195     0.00196       0.000
  j_90434              JUNCTION     0.005    0.011     0  02:20     0.00389       0.011       4.139
  j_90435              JUNCTION     0.008    0.014     0  02:25     0.00634      0.0169       0.019
  j_90436              JUNCTION     0.004    0.040     0  02:21     0.00344      0.0453       0.000
  j_90437              JUNCTION     0.010    0.563     0  02:26     0.00801       0.876       0.022
  j_90438              JUNCTION     0.008    0.514     0  02:26     0.00661       0.806       0.014
  j_90439              JUNCTION     0.004    0.016     0  02:20     0.00381      0.0149       0.000
  j_90440              JUNCTION     0.014    0.014     0  02:20      0.0118      0.0118      -0.132
  j_90441              JUNCTION     0.006    0.006     0  02:20     0.00604     0.00604      -0.050
  j_90442              JUNCTION     0.014    0.117     0  02:25      0.0144       0.183       0.059
  j_90443              JUNCTION     0.020    0.503     0  02:25      0.0187       0.782      -0.003
  j_90444              JUNCTION     0.008    0.207     0  02:25     0.00652       0.318       0.010
  j_90445              JUNCTION     0.007    0.022     0  02:20     0.00625      0.0211       0.000
  j_90446              JUNCTION     0.007    0.017     0  02:20     0.00569      0.0148       0.094
[...]
  c_905631                1.00   0.41  0.00  0.00  0.20  0.00  0.00  0.39  0.02  0.00
  c_905632                1.00   0.41  0.00  0.00  0.59  0.00  0.00  0.00  0.00  0.00
  c_905641                1.00   0.41  0.00  0.00  0.39  0.00  0.00  0.20  0.07  0.00
  c_905651                1.00   0.41  0.00  0.00  0.20  0.00  0.00  0.40  0.06  0.00
  c_905661                1.00   0.41  0.00  0.00  0.15  0.00  0.00  0.45  0.05  0.00
  c_905681                1.00   0.41  0.00  0.00  0.59  0.00  0.00  0.00  0.31  0.00
  c_905682                1.00   0.41  0.00  0.00  0.00  0.00  0.00  0.59  0.00  0.00
  c_905691                1.00   0.41  0.19  0.00  0.40  0.00  0.00  0.00  0.56  0.00
  c_905701                1.00   0.41  0.00  0.00  0.00  0.00  0.00  0.59  0.00  0.00
  c_905711                1.00   0.41  0.00  0.00  0.43  0.00  0.00  0.16  0.24  0.00
  c_905721                1.00   0.41  0.00  0.00  0.47  0.00  0.00  0.12  0.01  0.00
  c_905722                1.00   0.41  0.00  0.00  0.23  0.00  0.00  0.37  0.06  0.00
  c_905731                1.00   0.41  0.00  0.00  0.41  0.00  0.00  0.18  0.00  0.00
  c_905732                1.00   0.41  0.00  0.00  0.21  0.00  0.00  0.38  0.09  0.00
  c_905741                1.00   0.41  0.00  0.00  0.59  0.00  0.00  0.00  0.28  0.00
  c_905751                1.00   0.41  0.01  0.00  0.59  0.00  0.00  0.00  0.26  0.00
  c_905752                1.00   0.41  0.00  0.00  0.59  0.00  0.00  0.00  0.02  0.00
  c_905761                1.00   0.41  0.01  0.00  0.58  0.00  0.00  0.00  0.05  0.00
  c_905771                1.00   0.41  0.00  0.00  0.59  0.00  0.00  0.00  0.20  0.00
  c_905781                1.00   0.41  0.00  0.00  0.59  0.00  0.00  0.00  0.10  0.00
  c_905791                1.00   0.41  0.05  0.00  0.54  0.00  0.00  0.00  0.23  0.00
  c_905811                1.00   0.47  0.11  0.00  0.42  0.00  0.00  0.00  0.55  0.00
  c_905821                1.00   0.41  0.00  0.00  0.59  0.00  0.00  0.00  0.00  0.00
  c_905831                1.00   0.41  0.19  0.00  0.41  0.00  0.00  0.00  0.54  0.00
  c_905841                1.00   0.41  0.07  0.00  0.53  0.00  0.00  0.00  0.51  0.00
  c_905851                1.00   0.41  0.00  0.00  0.59  0.00  0.00  0.00  0.18  0.00
  c_905852                1.00   0.41  0.00  0.00  0.21  0.00  0.00  0.38  0.10  0.00
  c_905861                1.00   0.41  0.00  0.00  0.57  0.00  0.00  0.03  0.00  0.00
  c_905862                1.00   0.41  0.00  0.00  0.19  0.00  0.00  0.40  0.05  0.00
  c_905871                1.00   0.41  0.00  0.00  0.59  0.00  0.00  0.00  0.17  0.00
  c_905881                1.00   0.41  0.00  0.00  0.24  0.00  0.00  0.35  0.09  0.00
  c_905891                1.00   0.41  0.16  0.00  0.43  0.00  0.00  0.00  0.42  0.00
  c_905892                1.00   0.57  0.09  0.00  0.34  0.00  0.00  0.00  0.46  0.00
  c_905901                1.00   0.52  0.05  0.00  0.43  0.00  0.00  0.00  0.47  0.00
  c_905902                1.00   0.57  0.00  0.00  0.25  0.00  0.00  0.18  0.00  0.00
  c_905921                1.00   0.41  0.00  0.00  0.59  0.00  0.00  0.00  0.29  0.00
  c_905931                1.00   0.41  0.00  0.00  0.59  0.00  0.00  0.00  0.00  0.00
  c_905941                1.00   0.41  0.00  0.00  0.59  0.00  0.00  0.00  0.29  0.00
  c_905942                1.00   0.41  0.00  0.00  0.30  0.00  0.29  0.00  0.00  0.00
  c_905951                1.00   0.41  0.00  0.00  0.20  0.00  0.00  0.40  0.06  0.00
  c_905961                1.00   0.41  0.00  0.00  0.20  0.00  0.00  0.39  0.06  0.00
  c_905971                1.00   0.41  0.07  0.00  0.53  0.00  0.00  0.00  0.37  0.00
  c_905981                1.00   0.41  0.16  0.00  0.43  0.00  0.00  0.00  0.46  0.00
  c_905982                1.00   0.47  0.10  0.00  0.43  0.00  0.00  0.00  0.35  0.00
  c_905991                1.00   0.41  0.00  0.00  0.59  0.00  0.00  0.00  0.00  0.00
  c_906001                1.00   0.47  0.09  0.00  0.43  0.00  0.00  0.00  0.48  0.00
  c_906011                1.00   0.57  0.01  0.00  0.42  0.00  0.00  0.00  0.46  0.00
  c_906031                1.00   0.41  0.00  0.00  0.36  0.00  0.00  0.23  0.00  0.00
  c_906041                1.00   0.41  0.29  0.00  0.30  0.00  0.00  0.00  0.48  0.00
  c_906051                1.00   0.41  0.03  0.00  0.56  0.00  0.00  0.00  0.43  0.00
  c_906052                1.00   0.41  0.00  0.00  0.23  0.00  0.00  0.36  0.04  0.00
  c_906061                1.00   0.41  0.01  0.00  0.59  0.00  0.00  0.00  0.38  0.00
  c_906071                1.00   0.41  0.00  0.00  0.59  0.00  0.00  0.00  0.29  0.00
  c_906081                1.00   0.41  0.02  0.00  0.57  0.00  0.00  0.00  0.36  0.00
  c_906082                1.00   0.41  0.00  0.00  0.59  0.00  0.00  0.00  0.42  0.00
  c_906091                1.00   0.41  0.13  0.00  0.46  0.00  0.00  0.00  0.52  0.00
  c_906101                1.00   0.41  0.13  0.00  0.46  0.00  0.00  0.00  0.46  0.00
  c_906111                1.00   0.41  0.00  0.00  0.44  0.00  0.00  0.16  0.30  0.00
  c_906112                1.00   0.41  0.00  0.00  0.36  0.00  0.00  0.23  0.00  0.00
  c_906121                1.00   0.41  0.16  0.00  0.44  0.00  0.00  0.00  0.48  0.00
  c_906131                1.00   0.56  0.02  0.00  0.42  0.00  0.00  0.00  0.56  0.00
  c_906132                1.00   0.57  0.01  0.00  0.42  0.00  0.00  0.00  0.54  0.00
  c_906151                1.00   0.41  0.00  0.00  0.18  0.00  0.00  0.41  0.08  0.00
  c_906161                1.00   0.41  0.14  0.00  0.45  0.00  0.00  0.00  0.56  0.00
  c_906171                1.00   0.55  0.01  0.00  0.44  0.00  0.00  0.00  0.56  0.00
  c_906181                1.00   0.41  0.15  0.00  0.44  0.00  0.00  0.00  0.56  0.00
  c_906191                1.00   0.41  0.00  0.00  0.59  0.00  0.00  0.00  0.28  0.00
  c_906192                1.00   0.41  0.00  0.00  0.59  0.00  0.00  0.00  0.05  0.00
  c_906201                1.00   0.41  0.00  0.00  0.58  0.00  0.00  0.01  0.00  0.00
  c_906202                1.00   0.41  0.00  0.00  0.14  0.00  0.00  0.46  0.07  0.00
  c_906211                1.00   0.41  0.00  0.00  0.59  0.00  0.00  0.00  0.07  0.00
  c_906231                1.00   0.41  0.00  0.00  0.59  0.00  0.00  0.00  0.24  0.00
  c_906241                1.00   0.50  0.04  0.00  0.45  0.00  0.00  0.01  0.26  0.00
  c_906261                1.00   0.53  0.02  0.00  0.45  0.00  0.00  0.00  0.34  0.00
  c_906271                1.00   0.50  0.03  0.00  0.45  0.00  0.00  0.02  0.17  0.00
  c_906272                1.00   0.41  0.00  0.00  0.59  0.00  0.00  0.00  0.00  0.00
  c_906281                1.00   0.41  0.00  0.00  0.18  0.00  0.00  0.42  0.06  0.00
  c_906291                1.00   0.41  0.12  0.00  0.47  0.00  0.00  0.00  0.46  0.00
  c_906301                1.00   0.41  0.00  0.00  0.00  0.00  0.00  0.59  0.00  0.00
  c_906321                1.00   0.53  0.45  0.00  0.00  0.00  0.02  0.00  0.00  0.00
  c_906322                1.00   0.41  0.00  0.00  0.25  0.00  0.00  0.35  0.00  0.00
  c_906331                1.00   0.41  0.00  0.00  0.59  0.00  0.00  0.00  0.28  0.00
  c_906341                1.00   0.41  0.00  0.00  0.22  0.00  0.00  0.38  0.06  0.00
  c_906342                1.00   0.41  0.01  0.00  0.58  0.00  0.00  0.00  0.00  0.00
  c_906351                1.00   0.55  0.14  0.00  0.31  0.00  0.00  0.00  0.35  0.00
  c_906352                1.00   0.41  0.00  0.00  0.31  0.00  0.00  0.28  0.00  0.00
  c_906361                1.00   0.41  0.00  0.00  0.41  0.00  0.00  0.18  0.14  0.00
  c_906371                1.00   0.41  0.00  0.00  0.59  0.00  0.00  0.00  0.36  0.00
  c_906381                1.00   0.41  0.00  0.00  0.19  0.00  0.00  0.40  0.03  0.00
  c_906391                1.00   0.41  0.00  0.00  0.59  0.00  0.00  0.00  0.46  0.00
  c_906401                1.00   0.41  0.47  0.00  0.10  0.00  0.02  0.00  0.01  0.00
  c_906402                1.00   0.41  0.00  0.00  0.18  0.00  0.00  0.41  0.09  0.00
  c_906411                1.00   0.46  0.03  0.00  0.51  0.00  0.00  0.00  0.22  0.00
  c_906421                1.00   0.49  0.03  0.00  0.48  0.00  0.00  0.00  0.35  0.00
  c_906431                1.00   0.41  0.00  0.00  0.59  0.00  0.00  0.00  0.18  0.00
  c_906441                1.00   0.41  0.00  0.00  0.00  0.00  0.00  0.59  0.00  0.00
  c_906461                1.00   0.41  0.02  0.00  0.58  0.00  0.00  0.00  0.56  0.00
  c_906471                1.00   0.55  0.01  0.00  0.42  0.00  0.00  0.01  0.55  0.00
  c_906481                1.00   0.41  0.15  0.00  0.44  0.00  0.00  0.00  0.54  0.00
  c_906491                1.00   0.73  0.00  0.00  0.23  0.00  0.00  0.04  0.07  0.00
  c_906492                1.00   0.41  0.00  0.00  0.00  0.00  0.00  0.59  0.00  0.00
  c_906501                1.00   0.41  0.00  0.00  0.59  0.00  0.00  0.00  0.56  0.00
  c_906511                1.00   0.41  0.00  0.00  0.59  0.00  0.00  0.00  0.47  0.00
  c_906521                1.00   0.41  0.08  0.00  0.52  0.00  0.00  0.00  0.14  0.00
  c_906531                1.00   0.48  0.08  0.00  0.44  0.00  0.00  0.00  0.56  0.00
  c_906541                1.00   0.41  0.01  0.00  0.59  0.00  0.00  0.00  0.27  0.00
  c_906561                1.00   0.41  0.00  0.00  0.42  0.00  0.17  0.00  0.00  0.00
  c_906562                1.00   0.41  0.00  0.00  0.59  0.00  0.00  0.00  0.00  0.00
  c_906563                1.00   0.41  0.00  0.00  0.19  0.00  0.00  0.41  0.05  0.00
  c_906581                1.00   0.53  0.03  0.00  0.43  0.00  0.00  0.00  0.55  0.00
  c_906591                1.00   0.41  0.00  0.00  0.00  0.00  0.00  0.59  0.00  0.00
  c_906592                1.00   0.41  0.13  0.00  0.47  0.00  0.00  0.00  0.55  0.00
  c_906621                1.00   0.41  0.00  0.00  0.00  0.00  0.00  0.59  0.00  0.00
  c_906622                1.00   0.41  0.16  0.00  0.29  0.14  0.00  0.00  0.32  0.00
  c_906631                1.00   0.41  0.00  0.00  0.18  0.00  0.00  0.42  0.00  0.00
  c_906641                1.00   0.41  0.00  0.00  0.21  0.00  0.00  0.38  0.00  0.00
  c_906651                1.00   0.41  0.00  0.00  0.58  0.00  0.00  0.01  0.00  0.00
  c_906701                1.00   0.41  0.00  0.00  0.59  0.00  0.00  0.00  0.00  0.00
  c_906731                1.00   0.41  0.00  0.00  0.33  0.00  0.00  0.26  0.00  0.00
  c_906741                1.00   0.41  0.00  0.00  0.59  0.00  0.00  0.00  0.00  0.00
  c_906742                1.00   0.41  0.00  0.00  0.58  0.00  0.00  0.01  0.11  0.00
  c_906751                1.00   0.43  0.13  0.00  0.44  0.00  0.00  0.00  0.26  0.00
  c_906761                1.00   0.41  0.00  0.00  0.59  0.00  0.00  0.00  0.01  0.00
  c_906771                1.00   0.41  0.00  0.00  0.59  0.00  0.00  0.00  0.00  0.00
  c_906772                1.00   0.41  0.00  0.00  0.59  0.00  0.00  0.00  0.00  0.00
  c_906781                1.00   0.41  0.05  0.00  0.54  0.00  0.00  0.00  0.42  0.00
  c_906791                1.00   0.46  0.10  0.00  0.45  0.00  0.00  0.00  0.28  0.00
  c_906801                1.00   0.41  0.00  0.00  0.35  0.00  0.00  0.24  0.05  0.00
  c_906811                1.00   0.41  0.00  0.00  0.59  0.00  0.00  0.00  0.39  0.00
  c_906821                1.00   0.41  0.08  0.00  0.51  0.00  0.00  0.00  0.56  0.00
  c_906831                1.00   0.41  0.00  0.00  0.19  0.00  0.00  0.40  0.00  0.00
  c_906832                1.00   0.41  0.00  0.00  0.59  0.00  0.00  0.00  0.41  0.00
  c_906841                1.00   0.41  0.00  0.00  0.25  0.00  0.00  0.34  0.00  0.00
  c_906851                1.00   0.41  0.00  0.00  0.00  0.00  0.00  0.59  0.00  0.00
  c_906861                1.00   0.41  0.09  0.00  0.50  0.00  0.00  0.00  0.32  0.00
  c_906862                1.00   0.50  0.08  0.00  0.42  0.00  0.00  0.00  0.38  0.00
  c_906891                1.00   0.41  0.00  0.00  0.00  0.00  0.00  0.59  0.00  0.00
  c_906892                1.00   0.41  0.00  0.00  0.00  0.00  0.00  0.59  0.00  0.00
  c_906901                1.00   0.41  0.00  0.00  0.59  0.00  0.00  0.00  0.51  0.00
  c_906911                1.00   0.41  0.00  0.00  0.00  0.00  0.00  0.59  0.00  0.00
  c_906921                1.00   0.41  0.07  0.00  0.52  0.00  0.00  0.00  0.56  0.00
  c_906931                1.00   0.48  0.52  0.00  0.00  0.00  0.00  0.00  0.00  0.00
  c_906932                1.00   0.41  0.00  0.00  0.00  0.00  0.00  0.59  0.00  0.00
  c_906941                1.00   0.41  0.56  0.00  0.03  0.00  0.00  0.00  0.49  0.00
  c_906951                1.00   0.41  0.00  0.00  0.00  0.00  0.00  0.59  0.00  0.00
  c_906961                1.00   0.41  0.00  0.00  0.59  0.00  0.00  0.00  0.55  0.00
  c_906971                1.00   0.41  0.00  0.00  0.59  0.00  0.00  0.00  0.56  0.00
  c_906981                1.00   0.41  0.00  0.00  0.59  0.00  0.00  0.00  0.53  0.00
  c_906991                1.00   0.41  0.00  0.00  0.59  0.00  0.00  0.00  0.53  0.00
  c_906992                1.00   0.41  0.01  0.00  0.58  0.00  0.00  0.00  0.49  0.00
  c_907001                1.00   0.41  0.00  0.00  0.00  0.00  0.00  0.59  0.00  0.00
  c_907011                1.00   0.41  0.00  0.00  0.00  0.00  0.00  0.59  0.00  0.00
  c_907021                1.00   0.41  0.00  0.00  0.00  0.00  0.00  0.59  0.00  0.00
  c_907031                1.00   0.41  0.03  0.00  0.57  0.00  0.00  0.00  0.18  0.00
  c_907032                1.00   0.41  0.00  0.00  0.22  0.00  0.00  0.37  0.08  0.00
  c_907033                1.00   0.41  0.00  0.00  0.48  0.00  0.00  0.11  0.16  0.00
  c_907041                1.00   0.41  0.00  0.00  0.22  0.00  0.00  0.38  0.00  0.00
  c_907042                1.00   0.41  0.15  0.00  0.45  0.00  0.00  0.00  0.33  0.00
  c_907051                1.00   0.71  0.25  0.00  0.04  0.00  0.00  0.00  0.48  0.00
  c_907061                1.00   0.41  0.00  0.00  0.59  0.00  0.00  0.00  0.01  0.00
  c_907062                1.00   0.41  0.00  0.00  0.59  0.00  0.00  0.00  0.34  0.00
  c_907071                1.00   0.41  0.00  0.00  0.19  0.00  0.00  0.41  0.00  0.00
  c_907081                1.00   0.41  0.00  0.00  0.13  0.00  0.00  0.46  0.09  0.00
  c_907091                1.00   0.41  0.00  0.00  0.59  0.00  0.00  0.00  0.49  0.00
  c_907101                1.00   0.41  0.09  0.00  0.50  0.00  0.00  0.00  0.54  0.00
  c_907241                1.00   0.41  0.00  0.00  0.59  0.00  0.00  0.00  0.00  0.00
  c_907242                1.00   0.41  0.00  0.00  0.59  0.00  0.00  0.00  0.00  0.00
  c_907251                1.00   0.41  0.00  0.00  0.44  0.00  0.00  0.16  0.48  0.00
  c_907261                1.00   0.41  0.24  0.00  0.36  0.00  0.00  0.00  0.52  0.00
  c_907271                1.00   0.41  0.00  0.00  0.59  0.00  0.00  0.00  0.55  0.00
  c_907281                1.00   0.49  0.51  0.00  0.00  0.00  0.00  0.00  0.00  0.00
  c_907291                1.00   0.49  0.09  0.00  0.42  0.00  0.00  0.00  0.56  0.00
  c_907301                1.00   0.44  0.05  0.00  0.51  0.00  0.00  0.00  0.56  0.00
  c_907311                1.00   0.44  0.08  0.00  0.48  0.00  0.00  0.00  0.55  0.00
  c_907321                1.00   0.52  0.13  0.00  0.36  0.00  0.00  0.00  0.56  0.00
  c_907331                1.00   0.41  0.03  0.00  0.56  0.00  0.00  0.00  0.41  0.00
  c_907332                1.00   0.41  0.00  0.00  0.43  0.00  0.00  0.17  0.15  0.00
  c_912721                1.00   1.00  0.00  0.00  0.00  0.00  0.00  0.00  0.00  0.00
  c_912731                1.00   1.00  0.00  0.00  0.00  0.00  0.00  0.00  0.00  0.00
  c_912741                1.00   1.00  0.00  0.00  0.00  0.00  0.00  0.00  0.00  0.00
  c_912751                1.00   1.00  0.00  0.00  0.00  0.00  0.00  0.00  0.00  0.00
  c_912761                1.00   1.00  0.00  0.00  0.00  0.00  0.00  0.00  0.00  0.00
  c_912771                1.00   1.00  0.00  0.00  0.00  0.00  0.00  0.00  0.00  0.00
  c_912781                1.00   1.00  0.00  0.00  0.00  0.00  0.00  0.00  0.00  0.00
  c_912791                1.00   1.00  0.00  0.00  0.00  0.00  0.00  0.00  0.00  0.00
  c_912931                1.00   0.49  0.51  0.00  0.00  0.00  0.00  0.00  0.00  0.00
  c_912932                1.00   0.49  0.00  0.00  0.07  0.00  0.00  0.44  0.00  0.00
  c_912941                1.00   1.00  0.00  0.00  0.00  0.00  0.00  0.00  0.00  0.00
  
  
  *************************
  Conduit Surcharge Summary
  *************************
  
  ----------------------------------------------------------------------------
                                                           Hours        Hours 
                         --------- Hours Full --------   Above Full   Capacity
  Conduit                Both Ends  Upstream  Dnstream   Normal Flow   Limited
  ----------------------------------------------------------------------------
  c_903642                    0.01      0.01      0.01      0.26         0.01
  c_903672                    0.01      0.01      0.01      0.04         0.01
  c_903981                    0.01      0.01      0.09      0.01         0.01
  c_904381                    0.01      0.01      0.01      0.11         0.01
  c_904421                    0.01      0.01      0.01      0.42         0.01
  c_904441                    0.01      0.01      0.03      0.01         0.01
  c_904592                    0.01      0.01      0.01      0.18         0.01
  c_904881                    0.01      0.01      0.14      0.01         0.01
  c_904921                    0.01      0.01      0.07      0.01         0.01
  c_904951                    0.28      0.28      0.32      0.01         0.01
  c_904952                    0.46      0.46      0.47      0.01         0.01
  c_905051                    0.01      0.01      0.19      0.01         0.01
  c_905121                    0.15      0.15      0.21      0.01         0.01
  c_905241                    0.01      0.01      0.17      0.01         0.01
  c_905521                    0.01      0.01      0.01      0.05         0.01
  c_905571                    0.01      0.01      0.01      0.27         0.01
  c_905632                    0.01      0.01      0.01      0.92         0.01
  c_905741                    0.47      0.47      0.53      0.01         0.01
  c_905751                    0.50      0.50      0.69      0.01         0.01
  c_905861                    0.01      0.01      0.01      0.99         0.01
  c_905921                    0.30      0.30      0.37      0.01         0.01
  c_905931                    0.01      0.01      0.01      0.91         0.01
  c_905942                    0.32      0.32      0.37      0.59         0.01
  c_906201                    0.01      0.01      0.01      0.86         0.01
  c_906241                    0.31      0.31      0.47      0.01         0.01
  c_906261                    0.15      0.15      0.40      0.01         0.01
  c_906271                    0.40      0.40      0.44      0.01         0.01
  c_906322                    0.01      0.01      0.01      0.14         0.01
  c_906351                    0.01      0.01      0.15      0.01         0.01
  c_906352                    0.16      0.16      0.20      0.01         0.01
  c_906361                    0.01      0.01      0.07      0.01         0.01
  c_906631                    0.01      0.01      0.01      0.17         0.01
  c_906651                    0.62      0.62      0.62      0.01         0.03
  c_906731                    0.31      0.31      0.31      0.13         0.06
  c_906741                    0.01      0.01      0.01      0.44         0.01
  c_906781                    0.01      0.01      0.30      0.01         0.01
  c_906821                    0.01      0.01      0.21      0.01         0.01
  c_906841                    0.13      0.13      0.16      0.01         0.01
  c_907061                    0.16      0.16      0.28      0.01         0.01
  c_907062                    0.16      0.16      0.30      0.01         0.01
  c_907091                    0.01      0.01      0.14      0.01         0.01
  

  Analysis begun on:  Sun Jun 12 01:38:07 2022
  Analysis ended on:  Sun Jun 12 01:38:13 2022
  Total elapsed time: 00:00:06