
  EPA STORM WATER MANAGEMENT MODEL - VERSION 5.1 (Build 5.1.015)
  --------------------------------------------------------------

  WARNING 04: minimum elevation drop used for Conduit c_903642
  WARNING 04: minimum elevation drop used for Conduit c_903651
  WARNING 04: minimum elevation drop used for Conduit c_903672
  WARNING 04: minimum elevation drop used for Conduit c_905571
  WARNING 04: minimum elevation drop used for Conduit c_905632
  WARNING 04: minimum elevation drop used for Conduit c_905821
  WARNING 04: minimum elevation drop used for Conduit c_905861
  WARNING 04: minimum elevation drop used for Conduit c_905931
  WARNING 04: minimum elevation drop used for Conduit c_906201
  WARNING 04: minimum elevation drop used for Conduit c_906322
  WARNING 04: minimum elevation drop used for Conduit c_906631
  WARNING 04: minimum elevation drop used for Conduit c_906641
  WARNING 04: minimum elevation drop used for Conduit c_906651
  WARNING 04: minimum elevation drop used for Conduit c_906731
  WARNING 04: minimum elevation drop used for Conduit c_906741
  WARNING 04: minimum elevation drop used for Conduit c_907242
  
  *********************
  Rainfall File Summary
  *********************
  Station    First        Last         Recording   Periods    Periods    Periods
  ID         Date         Date         Frequency  w/Precip    Missing    Malfunc.
  -------------------------------------------------------------------------------
  R1         01/11/2014   01/11/2014       5 min       184          0          0
  R1         01/11/2014   01/11/2014       5 min       184          0          0
  R1         01/11/2014   01/11/2014       5 min       184          0          0

  
  *********************************************************
  NOTE: The summary statistics displayed in this report are
  based on results found at every computational time step,  
  not just on results from each reporting time step.
  *********************************************************
  
  ****************
  Analysis Options
  ****************
  Flow Units ............... CMS
  Process Models:
    Rainfall/Runoff ........ YES
    RDII ................... NO
    Snowmelt ............... NO
    Groundwater ............ NO
    Flow Routing ........... YES
    Ponding Allowed ........ NO
    Water Quality .......... NO
  Infiltration Method ...... HORTON
  Flow Routing Method ...... DYNWAVE
  Surcharge Method ......... EXTRAN
  Starting Date ............ 01/11/2014 00:00:00
  Ending Date .............. 01/11/2014 18:55:00
  Antecedent Dry Days ...... 0.0
  Report Time Step ......... 00:05:00
  Wet Time Step ............ 00:01:00
  Dry Time Step ............ 00:10:00
  Routing Time Step ........ 1.00 sec
  Variable Time Step ....... YES
  Maximum Trials ........... 12
  Number of Threads ........ 2
  Head Tolerance ........... 0.000200 m
  
  
  **************************        Volume         Depth
  Runoff Quantity Continuity     hectare-m            mm
  **************************     ---------       -------
  Total Precipitation ......         0.798        28.750
  Evaporation Loss .........         0.016         0.563
  Infiltration Loss ........         0.021         0.748
  Surface Runoff ...........         0.665        23.950
  Final Storage ............         0.100         3.586
  Continuity Error (%) .....        -0.339
  
  
  **************************        Volume        Volume
  Flow Routing Continuity        hectare-m      10^6 ltr
  **************************     ---------     ---------
  Dry Weather Inflow .......         0.000         0.000
  Wet Weather Inflow .......         0.665         6.645
  Groundwater Inflow .......         0.000         0.000
  RDII Inflow ..............         0.000         0.000
  External Inflow ..........         0.000         0.000
  External Outflow .........         0.666         6.657
  Flooding Loss ............         0.000         0.000
  Evaporation Loss .........         0.000         0.000
  Exfiltration Loss ........         0.000         0.000
  Initial Stored Volume ....         0.000         0.000
  Final Stored Volume ......         0.001         0.006
  Continuity Error (%) .....        -0.263
  
  
  *************************
  Highest Continuity Errors
  *************************
  Node j_90650 (2.00%)
  Node j_90584 (1.75%)
  Node j_90638 (1.74%)
  Node j_90628 (1.69%)
  Node j_90618 (1.40%)
  
  
  ***************************
  Time-Step Critical Elements
  ***************************
  Link c_904312 (12.71%)
  
  
  ********************************
  Highest Flow Instability Indexes
  ********************************
  All links are stable.
  
  
  *************************
  Routing Time Step Summary
  *************************
  Minimum Time Step           :     0.26 sec
  Average Time Step           :     0.96 sec
  Maximum Time Step           :     1.00 sec
  Percent in Steady State     :     0.44
  Average Iterations per Step :     2.11
  Percent Not Converging      :     0.76
  Time Step Frequencies       :
      1.000 -  0.871 sec      :    89.28 %
      0.871 -  0.758 sec      :     2.54 %
      0.758 -  0.660 sec      :     3.81 %
      0.660 -  0.574 sec      :     2.23 %
      0.574 -  0.500 sec      :     2.15 %
  
  
  ***************************
  Subcatchment Runoff Summary
  ***************************
  
  ------------------------------------------------------------------------------------------------------------------------------
                            Total      Total      Total      Total     Imperv       Perv      Total       Total     Peak  Runoff
                           Precip      Runon       Evap      Infil     Runoff     Runoff     Runoff      Runoff   Runoff   Coeff
  Subcatchment                 mm         mm         mm         mm         mm         mm         mm    10^6 ltr      CMS
  ------------------------------------------------------------------------------------------------------------------------------
  sub_9006F                 28.75       0.00       0.58       0.62      14.90       8.78      23.68        0.01     0.00   0.824
  sub_90334                 28.75       0.00       0.48       1.64       2.70      23.15      25.85        0.03     0.01   0.899
  sub_90335                 28.75       0.00       0.60       0.38      17.84       5.32      23.16        0.04     0.02   0.805
  sub_90336                 28.75       0.00       0.51       1.26       7.21      17.83      25.05        0.01     0.00   0.871
  sub_90363                 28.75       0.00       0.60       0.38      17.80       5.36      23.16        0.05     0.02   0.806
  sub_90364                 28.75       0.00       0.50       1.39       5.69      19.63      25.32        0.01     0.00   0.881
  sub_90365                 28.75       0.00       0.46       1.86       0.00      26.33      26.33        0.00     0.00   0.916
  sub_90366                 28.75       0.00       0.57       0.63      14.80       8.90      23.70        0.02     0.01   0.824
  sub_90367                 28.75       0.00       0.53       1.06       9.63      14.99      24.62        0.02     0.01   0.856
  sub_90369                 28.75       0.00       0.56       0.76      13.25      10.73      23.97        0.04     0.01   0.834
  sub_90370                 28.75       0.00       0.59       0.51      16.23       7.21      23.44        0.02     0.01   0.815
  sub_90371                 28.75       0.00       0.61       0.27      19.16       3.76      22.92        0.02     0.01   0.797
  sub_90372                 28.75       0.00       0.52       1.18       8.24      16.63      24.86        0.01     0.00   0.865
  sub_90373                 28.75       0.00       0.63       0.08      21.38       1.14      22.53        0.02     0.01   0.784
  sub_90375                 28.75       0.00       0.60       0.37      17.88       5.27      23.15        0.02     0.01   0.805
  sub_90376                 28.75       0.00       0.57       0.67      14.37       9.40      23.77        0.00     0.00   0.827
  sub_90377                 28.75       0.00       0.60       0.39      17.63       5.56      23.19        0.02     0.01   0.807
  sub_90378                 28.75       0.00       0.58       0.53      16.05       7.43      23.47        0.02     0.01   0.817
  sub_90379                 28.75       0.00       0.55       0.88      11.77      12.47      24.24        0.03     0.01   0.843
  sub_90380                 28.75       0.00       0.56       0.80      12.72      11.34      24.07        0.03     0.01   0.837
  sub_90381                 28.75       0.00       0.56       0.81      12.61      11.48      24.09        0.02     0.01   0.838
  sub_90382                 28.75       0.00       0.57       0.67      14.27       9.52      23.79        0.02     0.01   0.828
  sub_90383                 28.75       0.00       0.58       0.58      15.45       8.13      23.58        0.02     0.01   0.820
  sub_90384                 28.75       0.00       0.53       1.10       9.14      15.56      24.70        0.01     0.00   0.859
  sub_90385                 28.75       0.00       0.59       0.49      16.51       6.89      23.39        0.02     0.01   0.814
  sub_90386                 28.75       0.00       0.55       0.89      11.66      12.59      24.25        0.03     0.01   0.844
  sub_90387                 28.75       0.00       0.57       0.70      14.01       9.83      23.84        0.02     0.01   0.829
  sub_90388                 28.75       0.00       0.57       0.69      14.09       9.73      23.82        0.01     0.00   0.829
  sub_90389                 28.75       0.00       0.56       0.76      13.19      10.79      23.98        0.01     0.01   0.834
  sub_90390                 28.75       0.00       0.54       0.96      10.84      13.56      24.40        0.01     0.00   0.849
  sub_90391                 28.75       0.00       0.46       1.86       0.00      26.33      26.33        0.01     0.00   0.916
  sub_90392                 28.75       0.00       0.52       1.19       8.06      16.84      24.89        0.02     0.01   0.866
  sub_90393                 28.75       0.00       0.52       1.18       8.24      16.62      24.86        0.04     0.01   0.865
  sub_90394                 28.75       0.00       0.53       1.12       8.94      15.80      24.74        0.01     0.00   0.860
  sub_90395                 28.75       0.00       0.59       0.43      17.16       6.11      23.28        0.01     0.00   0.810
  sub_90396                 28.75       0.00       0.63       0.00      22.35       0.00      22.35        0.01     0.00   0.778
  sub_90397                 28.75       0.00       0.54       1.01      10.29      14.21      24.50        0.02     0.01   0.852
  sub_90398                 28.75       0.00       0.53       1.05       9.76      14.83      24.59        0.02     0.01   0.855
  sub_90399                 28.75       0.00       0.58       0.59      15.29       8.31      23.61        0.02     0.01   0.821
  sub_90400                 28.75       0.00       0.57       0.70      13.97       9.87      23.84        0.01     0.00   0.829
  sub_90401                 28.75       0.00       0.60       0.41      17.42       5.81      23.23        0.02     0.01   0.808
  sub_90402                 28.75       0.00       0.59       0.44      17.13       6.15      23.28        0.02     0.01   0.810
  sub_90403                 28.75       0.00       0.57       0.70      13.91       9.95      23.85        0.01     0.00   0.830
  sub_90404                 28.75       0.00       0.56       0.74      13.47      10.46      23.93        0.02     0.01   0.832
  sub_90405                 28.75       0.00       0.56       0.81      12.61      11.48      24.09        0.02     0.01   0.838
  sub_90406                 28.75       0.00       0.54       0.98      10.56      13.89      24.45        0.02     0.01   0.850
  sub_90407                 28.75       0.00       0.54       0.96      10.78      13.63      24.41        0.01     0.00   0.849
  sub_90408                 28.75       0.00       0.58       0.62      14.95       8.72      23.67        0.04     0.01   0.823
  sub_90427                 28.75       0.00       0.57       0.72      13.67      10.23      23.90        0.04     0.01   0.831
  sub_90428                 28.75       0.00       0.55       0.88      11.81      12.42      24.23        0.02     0.01   0.843
  sub_90430                 28.75       0.00       0.59       0.42      17.34       5.91      23.25        0.01     0.00   0.809
  sub_90431                 28.75       0.00       0.57       0.68      14.25       9.54      23.79        0.02     0.01   0.828
  sub_90433                 28.75       0.00       0.55       0.93      11.18      13.16      24.34        0.01     0.00   0.847
  sub_90434                 28.75       0.00       0.60       0.33      18.36       4.70      23.06        0.01     0.00   0.802
  sub_90435                 28.75       0.00       0.58       0.59      15.25       8.36      23.62        0.02     0.01   0.821
  sub_90436                 28.75       0.00       0.61       0.30      18.78       4.21      22.99        0.01     0.00   0.800
  sub_90437                 28.75       0.00       0.59       0.47      16.72       6.64      23.36        0.03     0.01   0.812
  sub_90438                 28.75       0.00       0.57       0.66      14.39       9.38      23.77        0.02     0.01   0.827
  sub_90439                 28.75       0.00       0.57       0.67      14.31       9.48      23.78        0.01     0.00   0.827
  sub_90440                 28.75       0.00       0.56       0.76      13.24      10.74      23.97        0.04     0.01   0.834
  sub_90441                 28.75       0.00       0.52       1.24       7.45      17.55      25.00        0.02     0.01   0.870
  sub_90442                 28.75       0.00       0.50       1.46       4.84      20.63      25.47        0.04     0.01   0.886
  sub_90443                 28.75       0.00       0.53       1.09       9.31      15.37      24.67        0.05     0.02   0.858
  sub_90444                 28.75       0.00       0.58       0.52      16.07       7.40      23.47        0.02     0.01   0.816
  sub_90445                 28.75       0.00       0.55       0.92      11.32      12.99      24.31        0.02     0.01   0.846
  sub_90446                 28.75       0.00       0.58       0.56      15.68       7.86      23.54        0.02     0.01   0.819
  sub_90447                 28.75       0.00       0.55       0.87      11.96      12.24      24.20        0.03     0.01   0.842
  sub_90448                 28.75       0.00       0.56       0.80      12.70      11.37      24.07        0.03     0.01   0.837
  sub_90449                 28.75       0.00       0.56       0.76      13.25      10.73      23.97        0.01     0.00   0.834
  sub_90450                 28.75       0.00       0.57       0.64      14.65       9.08      23.72        0.01     0.00   0.825
  sub_90451                 28.75       0.00       0.56       0.82      12.56      11.54      24.09        0.02     0.01   0.838
  sub_90452                 28.75       0.00       0.53       1.05       9.78      14.81      24.59        0.01     0.00   0.855
  sub_90453                 28.75       0.00       0.58       0.54      15.89       7.61      23.50        0.02     0.01   0.817
  sub_90454                 28.75       0.00       0.57       0.73      13.65      10.25      23.90        0.02     0.01   0.831
  sub_90455                 28.75       0.00       0.60       0.40      17.56       5.64      23.21        0.02     0.01   0.807
  sub_90456                 28.75       0.00       0.53       1.08       9.39      15.27      24.66        0.04     0.01   0.858
  sub_90457                 28.75       0.00       0.53       1.06       9.60      15.02      24.62        0.04     0.01   0.856
  sub_90459                 28.75       0.00       0.51       1.29       6.88      18.23      25.10        0.05     0.02   0.873
  sub_90460                 28.75       0.00       0.47       1.73       1.62      24.42      26.04        0.02     0.01   0.906
  sub_90461                 28.75       0.00       0.58       0.62      14.90       8.78      23.68        0.01     0.00   0.824
  sub_90462                 28.75       0.00       0.55       0.88      11.85      12.37      24.22        0.02     0.01   0.842
  sub_90463                 28.75       0.00       0.59       0.45      16.96       6.35      23.31        0.02     0.01   0.811
  sub_90464                 28.75       0.00       0.56       0.75      13.37      10.58      23.95        0.02     0.01   0.833
  sub_90465                 28.75       0.00       0.60       0.40      17.56       5.64      23.21        0.02     0.01   0.807
  sub_90466                 28.75       0.00       0.57       0.70      13.97       9.87      23.84        0.02     0.01   0.829
  sub_90467                 28.75       0.00       0.60       0.34      18.25       4.83      23.08        0.04     0.01   0.803
  sub_90468                 28.75       0.00       0.57       0.66      14.41       9.36      23.77        0.03     0.01   0.827
  sub_90469                 28.75       0.00       0.60       0.40      17.56       5.64      23.21        0.02     0.01   0.807
  sub_90470                 28.75       0.00       0.57       0.69      14.13       9.69      23.82        0.03     0.01   0.828
  sub_90471                 28.75       0.00       0.58       0.57      15.54       8.02      23.56        0.02     0.01   0.820
  sub_90477                 28.75       0.00       0.60       0.39      17.70       5.48      23.18        0.03     0.01   0.806
  sub_90478                 28.75       0.00       0.59       0.45      16.96       6.35      23.31        0.02     0.01   0.811
  sub_90479                 28.75       0.00       0.53       1.07       9.54      15.09      24.63        0.02     0.01   0.857
  sub_90480                 28.75       0.00       0.58       0.53      16.04       7.43      23.48        0.03     0.01   0.817
  sub_90481                 28.75       0.00       0.57       0.67      14.35       9.42      23.78        0.02     0.01   0.827
  sub_90482                 28.75       0.00       0.57       0.69      14.02       9.82      23.84        0.01     0.01   0.829
  sub_90483                 28.75       0.00       0.50       1.40       5.59      19.74      25.33        0.03     0.01   0.881
  sub_90484                 28.75       0.00       0.58       0.58      15.37       8.23      23.60        0.02     0.01   0.821
  sub_90485                 28.75       0.00       0.53       1.05       9.76      14.83      24.59        0.03     0.01   0.855
  sub_90486                 28.75       0.00       0.56       0.78      13.01      11.00      24.01        0.03     0.01   0.835
  sub_90487                 28.75       0.00       0.57       0.67      14.35       9.42      23.78        0.05     0.02   0.827
  sub_90488                 28.75       0.00       0.56       0.81      12.58      11.51      24.09        0.03     0.01   0.838
  sub_90489                 28.75       0.00       0.60       0.41      17.42       5.82      23.23        0.02     0.01   0.808
  sub_90490                 28.75       0.00       0.60       0.37      17.93       5.21      23.14        0.02     0.01   0.805
  sub_90491                 28.75       0.00       0.59       0.43      17.15       6.13      23.28        0.02     0.01   0.810
  sub_90492                 28.75       0.00       0.58       0.58      15.34       8.25      23.60        0.03     0.01   0.821
  sub_90493                 28.75       0.00       0.60       0.40      17.58       5.62      23.20        0.02     0.01   0.807
  sub_90494                 28.75       0.00       0.60       0.38      17.79       5.38      23.17        0.02     0.01   0.806
  sub_90495                 28.75       0.00       0.58       0.60      15.20       8.42      23.63        0.02     0.01   0.822
  sub_90496                 28.75       0.00       0.60       0.40      17.58       5.62      23.20        0.02     0.01   0.807
  sub_90497                 28.75       0.00       0.60       0.36      18.07       5.04      23.11        0.02     0.01   0.804
  sub_90498                 28.75       0.00       0.57       0.67      14.30       9.48      23.79        0.04     0.01   0.827
  sub_90499                 28.75       0.00       0.52       1.17       8.32      16.53      24.85        0.03     0.01   0.864
  sub_90500                 28.75       0.00       0.55       0.86      12.06      12.12      24.18        0.03     0.01   0.841
  sub_90501                 28.75       0.00       0.60       0.38      17.84       5.32      23.16        0.02     0.01   0.805
  sub_90502                 28.75       0.00       0.56       0.74      13.50      10.43      23.93        0.02     0.01   0.832
  sub_90503                 28.75       0.00       0.60       0.41      17.39       5.85      23.24        0.02     0.01   0.808
  sub_90504                 28.75       0.00       0.60       0.38      17.74       5.44      23.17        0.02     0.01   0.806
  sub_90505                 28.75       0.00       0.59       0.45      16.94       6.37      23.32        0.02     0.01   0.811
  sub_90506                 28.75       0.00       0.59       0.49      16.44       6.96      23.40        0.02     0.01   0.814
  sub_90507                 28.75       0.00       0.59       0.52      16.17       7.28      23.45        0.02     0.01   0.816
  sub_90508                 28.75       0.00       0.59       0.50      16.36       7.06      23.42        0.02     0.01   0.815
  sub_90509                 28.75       0.00       0.54       1.03       9.97      14.59      24.55        0.02     0.01   0.854
  sub_90510                 28.75       0.00       0.59       0.47      16.77       6.58      23.35        0.02     0.01   0.812
  sub_90511                 28.75       0.00       0.56       0.80      12.77      11.28      24.06        0.01     0.00   0.837
  sub_90512                 28.75       0.00       0.58       0.53      16.00       7.48      23.48        0.02     0.01   0.817
  sub_90513                 28.75       0.00       0.60       0.36      18.00       5.12      23.13        0.04     0.02   0.804
  sub_90514                 28.75       0.00       0.59       0.48      16.57       6.81      23.38        0.03     0.01   0.813
  sub_90515                 28.75       0.00       0.55       0.85      12.21      11.94      24.16        0.03     0.01   0.840
  sub_90516                 28.75       0.00       0.52       1.18       8.19      16.69      24.87        0.02     0.01   0.865
  sub_90517                 28.75       0.00       0.55       0.85      12.11      12.07      24.17        0.02     0.01   0.841
  sub_90518                 28.75       0.00       0.61       0.26      19.29       3.61      22.90        0.01     0.00   0.796
  sub_90519                 28.75       0.00       0.54       0.95      10.96      13.41      24.38        0.05     0.02   0.848
  sub_90520                 28.75       0.00       0.55       0.92      11.27      13.05      24.32        0.03     0.01   0.846
  sub_90521                 28.75       0.00       0.58       0.54      15.82       7.70      23.52        0.02     0.01   0.818
  sub_90522                 28.75       0.00       0.59       0.44      17.12       6.16      23.28        0.01     0.00   0.810
  sub_90523                 28.75       0.00       0.58       0.54      15.86       7.64      23.51        0.03     0.01   0.818
  sub_90524                 28.75       0.00       0.55       0.91      11.44      12.85      24.29        0.04     0.01   0.845
  sub_90525                 28.75       0.00       0.53       1.15       8.61      16.18      24.80        0.06     0.02   0.862
  sub_90526                 28.75       0.00       0.55       0.92      11.32      13.00      24.32        0.02     0.01   0.846
  sub_90527                 28.75       0.00       0.52       1.19       8.11      16.78      24.89        0.02     0.01   0.866
  sub_90549                 28.75       0.00       0.55       0.86      12.01      12.18      24.19        0.02     0.01   0.841
  sub_90550                 28.75       0.00       0.63       0.00      22.35       0.00      22.35        0.01     0.00   0.778
  sub_90551                 28.75       0.00       0.54       1.01      10.26      14.24      24.50        0.01     0.01   0.852
  sub_90552                 28.75       0.00       0.60       0.41      17.40       5.83      23.23        0.07     0.03   0.808
  sub_90553                 28.75       0.00       0.54       0.97      10.76      13.65      24.41        0.01     0.00   0.849
  sub_90554                 28.75       0.00       0.55       0.92      11.32      12.99      24.31        0.02     0.01   0.846
  sub_90555                 28.75       0.00       0.53       1.12       8.89      15.86      24.75        0.02     0.01   0.861
  sub_90556                 28.75       0.00       0.52       1.23       7.60      17.38      24.98        0.04     0.01   0.869
  sub_90557                 28.75       0.00       0.57       0.63      14.76       8.95      23.70        0.02     0.01   0.824
  sub_90558                 28.75       0.00       0.57       0.64      14.68       9.04      23.72        0.04     0.02   0.825
  sub_90559                 28.75       0.00       0.54       1.00      10.32      14.18      24.49        0.03     0.01   0.852
  sub_90560                 28.75       0.00       0.56       0.83      12.42      11.70      24.12        0.04     0.01   0.839
  sub_90561                 28.75       0.00       0.56       0.74      13.52      10.41      23.92        0.03     0.01   0.832
  sub_90562                 28.75       0.00       0.57       0.68      14.18       9.63      23.81        0.03     0.01   0.828
  sub_90563                 28.75       0.00       0.57       0.64      14.63       9.09      23.73        0.03     0.01   0.825
  sub_90564                 28.75       0.00       0.58       0.56      15.67       7.87      23.54        0.02     0.01   0.819
  sub_90565                 28.75       0.00       0.56       0.79      12.84      11.21      24.05        0.02     0.01   0.836
  sub_90566                 28.75       0.00       0.56       0.81      12.59      11.50      24.09        0.02     0.01   0.838
  sub_90567                 28.75       0.00       0.54       0.97      10.73      13.69      24.42        0.02     0.01   0.849
  sub_90568                 28.75       0.00       0.63       0.00      22.35       0.00      22.35        0.01     0.00   0.778
  sub_90569                 28.75       0.00       0.55       0.89      11.65      12.61      24.26        0.02     0.01   0.844
  sub_90570                 28.75       0.00       0.53       1.06       9.58      15.04      24.62        0.01     0.00   0.856
  sub_90571                 28.75       0.00       0.58       0.57      15.50       8.08      23.57        0.02     0.01   0.820
  sub_90572                 28.75       0.00       0.58       0.57      15.54       8.02      23.56        0.02     0.01   0.820
  sub_90573                 28.75       0.00       0.60       0.38      17.79       5.38      23.17        0.02     0.01   0.806
  sub_90574                 28.75       0.00       0.59       0.43      17.17       6.10      23.27        0.02     0.01   0.810
  sub_90575                 28.75       0.00       0.57       0.71      13.88       9.99      23.86        0.03     0.01   0.830
  sub_90576                 28.75       0.00       0.56       0.77      13.14      10.85      23.99        0.03     0.01   0.834
  sub_90577                 28.75       0.00       0.56       0.75      13.41      10.53      23.94        0.02     0.01   0.833
  sub_90578                 28.75       0.00       0.57       0.65      14.56       9.18      23.74        0.03     0.01   0.826
  sub_90579                 28.75       0.00       0.58       0.54      15.83       7.69      23.51        0.03     0.01   0.818
  sub_90580                 28.75       0.00       0.53       1.13       8.80      15.96      24.76        0.02     0.01   0.861
  sub_90581                 28.75       0.00       0.55       0.91      11.43      12.87      24.30        0.02     0.01   0.845
  sub_90582                 28.75       0.00       0.57       0.72      13.77      10.11      23.88        0.02     0.01   0.831
  sub_90583                 28.75       0.00       0.55       0.89      11.63      12.63      24.26        0.02     0.01   0.844
  sub_90584                 28.75       0.00       0.59       0.50      16.34       7.08      23.42        0.02     0.01   0.815
  sub_90585                 28.75       0.00       0.59       0.50      16.37       7.05      23.42        0.03     0.01   0.815
  sub_90586                 28.75       0.00       0.58       0.55      15.77       7.76      23.52        0.02     0.01   0.818
  sub_90587                 28.75       0.00       0.58       0.61      15.09       8.56      23.65        0.02     0.01   0.822
  sub_90588                 28.75       0.00       0.59       0.42      17.35       5.89      23.24        0.02     0.01   0.808
  sub_90589                 28.75       0.00       0.57       0.68      14.18       9.62      23.81        0.02     0.01   0.828
  sub_90590                 28.75       0.00       0.57       0.66      14.49       9.27      23.75        0.03     0.01   0.826
  sub_90591                 28.75       0.00       0.59       0.45      17.00       6.31      23.31        0.02     0.01   0.811
  sub_90592                 28.75       0.00       0.59       0.43      17.16       6.12      23.28        0.02     0.01   0.810
  sub_90593                 28.75       0.00       0.58       0.59      15.32       8.28      23.60        0.02     0.01   0.821
  sub_90594                 28.75       0.00       0.57       0.72      13.68      10.22      23.90        0.03     0.01   0.831
  sub_90595                 28.75       0.00       0.57       0.73      13.60      10.31      23.91        0.02     0.01   0.832
  sub_90596                 28.75       0.00       0.60       0.41      17.39       5.85      23.24        0.02     0.01   0.808
  sub_90597                 28.75       0.00       0.54       0.97      10.70      13.72      24.42        0.02     0.01   0.850
  sub_90598                 28.75       0.00       0.54       0.96      10.79      13.62      24.41        0.01     0.01   0.849
  sub_90599                 28.75       0.00       0.57       0.71      13.86      10.00      23.86        0.01     0.00   0.830
  sub_90600                 28.75       0.00       0.57       0.64      14.63       9.09      23.73        0.01     0.00   0.825
  sub_90601                 28.75       0.00       0.53       1.07       9.47      15.18      24.64        0.02     0.01   0.857
  sub_90602                 28.75       0.00       0.56       0.80      12.77      11.28      24.06        0.02     0.01   0.837
  sub_90603                 28.75       0.00       0.54       1.01      10.19      14.33      24.52        0.02     0.01   0.853
  sub_90604                 28.75       0.00       0.57       0.68      14.23       9.57      23.80        0.02     0.01   0.828
  sub_90605                 28.75       0.00       0.57       0.67      14.35       9.43      23.78        0.04     0.01   0.827
  sub_90606                 28.75       0.00       0.56       0.75      13.36      10.59      23.95        0.02     0.01   0.833
  sub_90607                 28.75       0.00       0.56       0.78      13.01      11.00      24.01        0.02     0.01   0.835
  sub_90608                 28.75       0.00       0.55       0.93      11.18      13.16      24.34        0.02     0.01   0.847
  sub_90609                 28.75       0.00       0.53       1.09       9.23      15.46      24.69        0.02     0.01   0.859
  sub_90610                 28.75       0.00       0.53       1.06       9.62      14.99      24.62        0.02     0.01   0.856
  sub_90611                 28.75       0.00       0.54       0.95      10.97      13.40      24.38        0.01     0.00   0.848
  sub_90612                 28.75       0.00       0.53       1.07       9.50      15.14      24.64        0.02     0.01   0.857
  sub_90613                 28.75       0.00       0.53       1.14       8.65      16.14      24.79        0.03     0.01   0.862
  sub_90615                 28.75       0.00       0.54       0.97      10.69      13.74      24.43        0.04     0.01   0.850
  sub_90616                 28.75       0.00       0.59       0.50      16.38       7.03      23.42        0.04     0.01   0.814
  sub_90617                 28.75       0.00       0.57       0.64      14.62       9.11      23.73        0.03     0.01   0.825
  sub_90618                 28.75       0.00       0.60       0.42      17.37       5.86      23.24        0.05     0.02   0.808
  sub_90619                 28.75       0.00       0.63       0.07      21.56       0.94      22.50        0.01     0.00   0.782
  sub_90620                 28.75       0.00       0.59       0.44      17.11       6.17      23.29        0.01     0.01   0.810
  sub_90621                 28.75       0.00       0.55       0.92      11.28      13.04      24.32        0.05     0.02   0.846
  sub_90623                 28.75       0.00       0.56       0.79      12.88      11.16      24.04        0.04     0.02   0.836
  sub_90624                 28.75       0.00       0.56       0.76      13.21      10.77      23.98        0.01     0.00   0.834
  sub_90625                 28.75       0.00       0.57       0.65      14.56       9.18      23.74        0.02     0.01   0.826
  sub_90626                 28.75       0.00       0.58       0.58      15.41       8.18      23.59        0.02     0.01   0.820
  sub_90627                 28.75       0.00       0.54       1.03      10.03      14.51      24.54        0.03     0.01   0.854
  sub_90628                 28.75       0.00       0.55       0.84      12.26      11.89      24.15        0.05     0.02   0.840
  sub_90629                 28.75       0.00       0.54       0.98      10.64      13.80      24.44        0.04     0.01   0.850
  sub_90630                 28.75       0.00       0.60       0.41      17.42       5.82      23.23        0.02     0.01   0.808
  sub_90631                 28.75       0.00       0.57       0.64      14.63       9.10      23.73        0.02     0.01   0.825
  sub_90632                 28.75       0.00       0.57       0.67      14.35       9.43      23.78        0.02     0.01   0.827
  sub_90633                 28.75       0.00       0.60       0.41      17.44       5.79      23.23        0.02     0.01   0.808
  sub_90634                 28.75       0.00       0.58       0.62      14.90       8.78      23.68        0.01     0.01   0.824
  sub_90635                 28.75       0.00       0.55       0.91      11.44      12.85      24.29        0.02     0.01   0.845
  sub_90636                 28.75       0.00       0.57       0.69      14.09       9.73      23.82        0.02     0.01   0.829
  sub_90637                 28.75       0.00       0.57       0.64      14.70       9.02      23.72        0.03     0.01   0.825
  sub_90638                 28.75       0.00       0.60       0.37      17.88       5.27      23.15        0.04     0.01   0.805
  sub_90639                 28.75       0.00       0.54       0.97      10.67      13.76      24.43        0.03     0.01   0.850
  sub_90640                 28.75       0.00       0.59       0.49      16.49       6.91      23.40        0.03     0.01   0.814
  sub_90641                 28.75       0.00       0.58       0.60      15.14       8.50      23.64        0.03     0.01   0.822
  sub_90642                 28.75       0.00       0.56       0.76      13.25      10.73      23.97        0.02     0.01   0.834
  sub_90643                 28.75       0.00       0.59       0.49      16.52       6.87      23.39        0.04     0.02   0.814
  sub_90644                 28.75       0.00       0.59       0.42      17.31       5.94      23.25        0.02     0.01   0.809
  sub_90645                 28.75       0.00       0.58       0.60      15.20       8.42      23.63        0.01     0.00   0.822
  sub_90646                 28.75       0.00       0.53       1.12       8.94      15.80      24.74        0.02     0.01   0.860
  sub_90647                 28.75       0.00       0.49       1.54       3.91      21.73      25.63        0.03     0.01   0.892
  sub_90648                 28.75       0.00       0.60       0.41      17.49       5.72      23.22        0.02     0.01   0.808
  sub_90649                 28.75       0.00       0.58       0.60      15.19       8.43      23.63        0.02     0.01   0.822
  sub_90650                 28.75       0.00       0.58       0.59      15.31       8.30      23.61        0.05     0.02   0.821
  sub_90651                 28.75       0.00       0.59       0.48      16.55       6.83      23.39        0.02     0.01   0.813
  sub_90652                 28.75       0.00       0.58       0.61      15.00       8.66      23.66        0.02     0.01   0.823
  sub_90653                 28.75       0.00       0.56       0.75      13.41      10.53      23.94        0.02     0.01   0.833
  sub_90654                 28.75       0.00       0.55       0.85      12.11      12.07      24.17        0.01     0.00   0.841
  sub_90655                 28.75       0.00       0.58       0.55      15.71       7.82      23.53        0.02     0.01   0.819
  sub_90656                 28.75       0.00       0.54       0.98      10.56      13.89      24.45        0.03     0.01   0.850
  sub_90657                 28.75       0.00       0.54       1.03       9.96      14.60      24.56        0.03     0.01   0.854
  sub_90658                 28.75       0.00       0.58       0.59      15.28       8.34      23.61        0.03     0.01   0.821
  sub_90659                 28.75       0.00       0.51       1.35       6.17      19.06      25.23        0.01     0.01   0.878
  sub_90662                 28.75       0.00       0.57       0.69      14.07       9.75      23.83        0.01     0.00   0.829
  sub_90663                 28.75       0.00       0.54       0.94      11.05      13.32      24.36        0.06     0.02   0.847
  sub_90664                 28.75       0.00       0.46       1.86       0.00      26.33      26.33        0.01     0.00   0.916
  sub_90665                 28.75       0.00       0.55       0.87      11.91      12.30      24.21        0.02     0.01   0.842
  sub_90669                 28.75       0.00       0.57       0.71      13.90       9.96      23.86        0.01     0.00   0.830
  sub_90670                 28.75       0.00       0.59       0.52      16.16       7.29      23.45        0.02     0.01   0.816
  sub_90671                 28.75       0.00       0.58       0.57      15.55       8.01      23.56        0.01     0.00   0.820
  sub_90672                 28.75       0.00       0.56       0.75      13.31      10.65      23.96        0.02     0.01   0.833
  sub_90673                 28.75       0.00       0.54       0.96      10.83      13.57      24.40        0.02     0.01   0.849
  sub_90674                 28.75       0.00       0.61       0.28      19.02       3.93      22.95        0.03     0.01   0.798
  sub_90675                 28.75       0.00       0.59       0.42      17.27       5.99      23.26        0.03     0.01   0.809
  sub_90676                 28.75       0.00       0.57       0.63      14.84       8.85      23.69        0.03     0.01   0.824
  sub_90677                 28.75       0.00       0.55       0.92      11.37      12.93      24.31        0.01     0.01   0.845
  sub_90678                 28.75       0.00       0.56       0.82      12.52      11.58      24.10        0.02     0.01   0.838
  sub_90679                 28.75       0.00       0.55       0.90      11.54      12.74      24.28        0.04     0.01   0.844
  sub_90680                 28.75       0.00       0.59       0.52      16.14       7.31      23.46        0.03     0.01   0.816
  sub_90681                 28.75       0.00       0.55       0.92      11.36      12.95      24.31        0.01     0.01   0.845
  sub_90682                 28.75       0.00       0.56       0.82      12.47      11.64      24.11        0.02     0.01   0.839
  sub_90683                 28.75       0.00       0.50       1.36       6.03      19.22      25.25        0.02     0.01   0.878
  sub_90684                 28.75       0.00       0.61       0.30      18.72       4.29      23.00        0.01     0.00   0.800
  sub_90685                 28.75       0.00       0.61       0.22      19.69       3.13      22.83        0.01     0.00   0.794
  sub_90686                 28.75       0.00       0.56       0.82      12.52      11.58      24.10        0.01     0.00   0.838
  sub_90688                 28.75       0.00       0.58       0.62      14.90       8.78      23.68        0.01     0.01   0.824
  sub_90689                 28.75       0.00       0.54       0.99      10.43      14.04      24.47        0.01     0.00   0.851
  sub_90690                 28.75       0.00       0.56       0.78      13.01      11.01      24.02        0.01     0.00   0.835
  sub_90691                 28.75       0.00       0.57       0.67      14.32       9.46      23.78        0.02     0.01   0.827
  sub_90692                 28.75       0.00       0.58       0.58      15.40       8.19      23.59        0.01     0.00   0.821
  sub_90693                 28.75       0.00       0.53       1.10       9.20      15.49      24.69        0.01     0.00   0.859
  sub_90694                 28.75       0.00       0.49       1.50       4.33      21.23      25.56        0.01     0.00   0.889
  sub_90695                 28.75       0.00       0.55       0.84      12.29      11.85      24.14        0.01     0.00   0.840
  sub_90696                 28.75       0.00       0.55       0.93      11.18      13.16      24.34        0.01     0.00   0.847
  sub_90697                 28.75       0.00       0.54       0.96      10.86      13.54      24.40        0.01     0.00   0.849
  sub_90698                 28.75       0.00       0.53       1.08       9.37      15.29      24.66        0.01     0.00   0.858
  sub_90699                 28.75       0.00       0.51       1.29       6.94      18.16      25.09        0.01     0.00   0.873
  sub_90700                 28.75       0.00       0.60       0.35      18.10       5.01      23.11        0.00     0.00   0.804
  sub_90701                 28.75       0.00       0.60       0.33      18.41       4.65      23.06        0.00     0.00   0.802
  sub_90702                 28.75       0.00       0.60       0.37      17.88       5.27      23.15        0.00     0.00   0.805
  sub_90703                 28.75       0.00       0.54       0.96      10.88      13.52      24.39        0.02     0.01   0.848
  sub_90704                 28.75       0.00       0.55       0.92      11.31      13.01      24.32        0.02     0.01   0.846
  sub_90705                 28.75       0.00       0.54       1.00      10.41      14.07      24.48        0.03     0.01   0.851
  sub_90706                 28.75       0.00       0.57       0.68      14.18       9.63      23.81        0.01     0.00   0.828
  sub_90707                 28.75       0.00       0.59       0.45      16.90       6.42      23.32        0.01     0.00   0.811
  sub_90708                 28.75       0.00       0.53       1.11       9.07      15.64      24.71        0.03     0.01   0.860
  sub_90709                 28.75       0.00       0.56       0.82      12.52      11.58      24.10        0.02     0.01   0.838
  sub_90710                 28.75       0.00       0.53       1.07       9.52      15.12      24.63        0.04     0.01   0.857
  sub_90724                 28.75       0.00       0.53       1.12       8.94      15.80      24.74        0.01     0.00   0.860
  sub_90725                 28.75       0.00       0.46       1.86       0.00      26.33      26.33        0.01     0.00   0.916
  sub_90726                 28.75       0.00       0.46       1.86       0.00      26.33      26.33        0.00     0.00   0.916
  sub_90727                 28.75       0.00       0.46       1.86       0.00      26.33      26.33        0.00     0.00   0.916
  sub_90728                 28.75       0.00       0.46       1.86       0.00      26.33      26.33        0.01     0.00   0.916
  sub_90729                 28.75       0.00       0.46       1.86       0.00      26.33      26.33        0.01     0.00   0.916
  sub_90730                 28.75       0.00       0.46       1.86       0.00      26.33      26.33        0.01     0.00   0.916
  sub_90731                 28.75       0.00       0.46       1.86       0.00      26.33      26.33        0.02     0.01   0.916
  sub_90732                 28.75       0.00       0.46       1.86       0.00      26.33      26.33        0.00     0.00   0.916
  sub_90733                 28.75       0.00       0.58       0.55      15.78       7.74      23.52        0.01     0.00   0.818
  
  
  ******************
  Node Depth Summary
  ******************
  
  ---------------------------------------------------------------------------------
                                 Average  Maximum  Maximum  Time of Max    Reported
                                   Depth    Depth      HGL   Occurrence   Max Depth
  Node                 Type       Meters   Meters   Meters  days hr:min      Meters
  ---------------------------------------------------------------------------------
  j_9006F              JUNCTION     0.03     0.38     0.02     0  13:21        0.37
  j_90334              JUNCTION     0.01     0.16    -0.05     0  13:20        0.15
  j_90335              JUNCTION     0.02     0.33    -0.08     0  13:20        0.33
  j_90336              JUNCTION     0.02     0.24     0.07     0  13:15        0.24
  j_90363              JUNCTION     0.05     0.29    -0.06     0  13:20        0.29
  j_90364              JUNCTION     0.05     0.29    -0.06     0  13:20        0.29
  j_90365              JUNCTION     0.05     0.29    -0.06     0  13:20        0.29
  j_90366              JUNCTION     0.02     0.24    -0.07     0  13:20        0.24
  j_90367              JUNCTION     0.04     0.42    -0.07     0  13:20        0.42
  j_90368              JUNCTION     0.01     0.22    -0.07     0  13:20        0.22
  j_90369              JUNCTION     0.01     0.22    -0.08     0  13:20        0.22
  j_90370              JUNCTION     0.05     0.43    -0.08     0  13:20        0.43
  j_90371              JUNCTION     0.06     0.47    -0.09     0  13:20        0.47
  j_90372              JUNCTION     0.01     0.16    -0.09     0  13:20        0.16
  j_90373              JUNCTION     0.03     0.38    -0.09     0  13:20        0.38
  j_90374              JUNCTION     0.01     0.19    -0.09     0  13:20        0.19
  j_90375              JUNCTION     0.02     0.25    -0.09     0  13:20        0.25
  j_90376              JUNCTION     0.01     0.08    -0.07     0  13:15        0.08
  j_90377              JUNCTION     0.01     0.08    -0.09     0  13:20        0.08
  j_90378              JUNCTION     0.02     0.17    -0.23     0  13:20        0.17
  j_90379              JUNCTION     0.01     0.11    -0.14     0  13:15        0.11
  j_90380              JUNCTION     0.01     0.14    -0.19     0  13:20        0.13
  j_90381              JUNCTION     0.04     0.25    -0.20     0  13:20        0.24
  j_90382              JUNCTION     0.08     0.71    -0.21     0  13:20        0.71
  j_90383              JUNCTION     0.07     0.64    -0.18     0  13:20        0.64
  j_90384              JUNCTION     0.05     0.28    -0.18     0  13:20        0.28
  j_90385              JUNCTION     0.01     0.19    -0.18     0  13:20        0.19
  j_90386              JUNCTION     0.01     0.12    -0.11     0  13:15        0.12
  j_90387              JUNCTION     0.01     0.10    -0.10     0  13:20        0.10
  j_90388              JUNCTION     0.04     0.29    -0.10     0  13:20        0.29
  j_90389              JUNCTION     0.06     0.49    -0.12     0  13:20        0.49
  j_90390              JUNCTION     0.05     0.47    -0.10     0  13:20        0.46
  j_90391              JUNCTION     0.04     0.26     0.02     0  13:15        0.26
  j_90392              JUNCTION     0.04     0.28     0.03     0  13:15        0.28
  j_90393              JUNCTION     0.03     0.25     0.06     0  13:15        0.25
  j_90394              JUNCTION     0.02     0.18     0.08     0  13:15        0.18
  j_90395              JUNCTION     0.01     0.16     0.08     0  13:15        0.16
  j_90396              JUNCTION     0.01     0.10     0.08     0  13:15        0.10
  j_90397              JUNCTION     0.07     0.61    -0.16     0  13:20        0.61
  j_90398              JUNCTION     0.04     0.46    -0.16     0  13:20        0.46
  j_90399              JUNCTION     0.01     0.15    -0.16     0  13:20        0.15
  j_90400              JUNCTION     0.01     0.10    -0.16     0  13:20        0.10
  j_90401              JUNCTION     0.01     0.11    -0.20     0  13:20        0.11
  j_90402              JUNCTION     0.01     0.14    -0.22     0  13:20        0.14
  j_90403              JUNCTION     0.01     0.09    -0.16     0  13:20        0.09
  j_90404              JUNCTION     0.01     0.14    -0.16     0  13:20        0.14
  j_90405              JUNCTION     0.03     0.41    -0.15     0  13:20        0.40
  j_90406              JUNCTION     0.02     0.35    -0.15     0  13:20        0.34
  j_90407              JUNCTION     0.01     0.26    -0.15     0  13:20        0.25
  j_90408              JUNCTION     0.01     0.16    -0.16     0  13:20        0.16
  j_90427              JUNCTION     0.04     0.47     0.04     0  13:20        0.47
  j_90428              JUNCTION     0.03     0.41     0.04     0  13:20        0.41
  j_90430              JUNCTION     0.02     0.18    -1.39     0  13:20        0.18
  j_90433              JUNCTION     0.02     0.19    -0.18     0  13:15        0.19
  j_90434              JUNCTION     0.06     0.25    -0.18     0  13:15        0.25
  j_90435              JUNCTION     0.02     0.16    -0.21     0  13:15        0.16
  j_90436              JUNCTION     0.03     0.25    -0.21     0  13:15        0.25
  j_90437              JUNCTION     0.09     0.73    -0.63     0  13:20        0.73
  j_90438              JUNCTION     0.12     0.84    -0.51     0  13:20        0.84
  j_90439              JUNCTION     0.01     0.14    -0.07     0  13:20        0.14
  j_90440              JUNCTION     0.01     0.19     0.03     0  13:20        0.19
  j_90441              JUNCTION     0.01     0.07    -0.06     0  13:13        0.07
  j_90442              JUNCTION     0.08     0.57    -0.07     0  13:20        0.57
  j_90443              JUNCTION     0.12     0.88    -0.42     0  13:20        0.87
  j_90444              JUNCTION     0.08     0.77    -0.34     0  13:20        0.77
  j_90445              JUNCTION     0.02     0.18    -0.25     0  13:15        0.18
  j_90446              JUNCTION     0.01     0.15    -0.21     0  13:15        0.15
  j_90447              JUNCTION     0.01     0.12    -0.13     0  13:15        0.12
  j_90448              JUNCTION     0.01     0.11    -0.16     0  13:15        0.11
  j_90449              JUNCTION     0.03     0.19    -0.29     0  13:20        0.19
  j_90450              JUNCTION     0.02     0.18    -0.29     0  13:20        0.18
  j_90451              JUNCTION     0.07     0.73    -0.29     0  13:20        0.73
  j_90452              JUNCTION     0.02     0.18    -0.24     0  13:20        0.18
  j_90453              JUNCTION     0.08     0.72    -0.24     0  13:20        0.72
  j_90454              JUNCTION     0.02     0.18    -0.29     0  13:15        0.18
  j_90455              JUNCTION     0.03     0.22    -0.32     0  13:15        0.22
  j_90456              JUNCTION     0.04     0.32    -0.34     0  13:20        0.32
  j_90457              JUNCTION     0.05     0.40    -0.36     0  13:20        0.40
  j_90459              JUNCTION     0.07     0.66    -0.39     0  13:20        0.65
  j_90460              JUNCTION     0.05     0.59    -0.37     0  13:20        0.59
  j_90461              JUNCTION     0.09     0.71    -0.37     0  13:20        0.71
  j_90462              JUNCTION     0.07     0.66    -0.32     0  13:20        0.65
  j_90463              JUNCTION     0.04     0.47    -0.26     0  13:20        0.47
  j_90464              JUNCTION     0.03     0.37    -0.26     0  13:20        0.37
  j_90465              JUNCTION     0.02     0.29    -0.25     0  13:20        0.29
  j_90466              JUNCTION     0.02     0.20    -0.24     0  13:20        0.20
  j_90467              JUNCTION     0.02     0.25    -0.17     0  13:20        0.25
  j_90468              JUNCTION     0.03     0.34    -0.18     0  13:20        0.34
  j_90469              JUNCTION     0.03     0.36    -0.20     0  13:20        0.36
  j_90470              JUNCTION     0.04     0.46    -0.21     0  13:20        0.45
  j_90471              JUNCTION     0.04     0.48    -0.22     0  13:20        0.48
  j_90477              JUNCTION     0.02     0.36     0.05     0  13:20        0.36
  j_90478              JUNCTION     0.04     0.46     0.05     0  13:20        0.46
  j_90479              JUNCTION     0.02     0.37     0.05     0  13:20        0.36
  j_90480              JUNCTION     0.02     0.31     0.06     0  13:20        0.30
  j_90481              JUNCTION     0.04     0.45     0.05     0  13:20        0.45
  j_90482              JUNCTION     0.05     0.50     0.05     0  13:19        0.50
  j_90483              JUNCTION     0.02     0.33     0.05     0  13:20        0.33
  j_90484              JUNCTION     0.01     0.25     0.05     0  13:20        0.25
  j_90485              JUNCTION     0.03     0.37     0.04     0  13:20        0.37
  j_90486              JUNCTION     0.06     0.50     0.04     0  13:20        0.50
  j_90487              JUNCTION     0.06     0.54     0.02     0  13:19        0.54
  j_90488              JUNCTION     0.08     0.58    -0.02     0  13:20        0.58
  j_90489              JUNCTION     0.01     0.23     0.00     0  13:20        0.23
  j_90490              JUNCTION     0.02     0.33     0.02     0  13:20        0.33
  j_90491              JUNCTION     0.07     0.58     0.04     0  13:19        0.58
  j_90492              JUNCTION     0.08     0.64     0.02     0  13:20        0.64
  j_90493              JUNCTION     0.02     0.34     0.02     0  13:20        0.34
  j_90494              JUNCTION     0.09     0.75     0.01     0  13:19        0.75
  j_90495              JUNCTION     0.09     0.74     0.03     0  13:19        0.73
  j_90496              JUNCTION     0.03     0.34     0.02     0  13:20        0.34
  j_90497              JUNCTION     0.01     0.18     0.00     0  13:20        0.18
  j_90498              JUNCTION     0.05     0.47    -0.01     0  13:20        0.47
  j_90499              JUNCTION     0.05     0.47     0.00     0  13:20        0.47
  j_90500              JUNCTION     0.03     0.39     0.01     0  13:20        0.39
  j_90501              JUNCTION     0.02     0.30     0.03     0  13:20        0.30
  j_90502              JUNCTION     0.02     0.26     0.03     0  13:20        0.26
  j_90503              JUNCTION     0.02     0.26     0.03     0  13:20        0.26
  j_90504              JUNCTION     0.04     0.32     0.04     0  13:20        0.31
  j_90505              JUNCTION     0.05     0.53     0.03     0  13:20        0.53
  j_90506              JUNCTION     0.06     0.55     0.04     0  13:20        0.54
  j_90507              JUNCTION     0.03     0.41     0.04     0  13:20        0.41
  j_90508              JUNCTION     0.04     0.49     0.04     0  13:20        0.49
  j_90509              JUNCTION     0.02     0.29     0.04     0  13:20        0.29
  j_90510              JUNCTION     0.03     0.37     0.06     0  13:20        0.37
  j_90511              JUNCTION     0.10     0.65     0.06     0  13:19        0.65
  j_90512              JUNCTION     0.07     0.60     0.06     0  13:20        0.60
  j_90513              JUNCTION     0.02     0.28     0.02     0  13:20        0.28
  j_90514              JUNCTION     0.02     0.32     0.00     0  13:20        0.32
  j_90515              JUNCTION     0.05     0.37    -0.04     0  13:20        0.37
  j_90516              JUNCTION     0.06     0.30    -0.14     0  13:20        0.30
  j_90517              JUNCTION     0.06     0.64    -0.28     0  13:20        0.64
  j_90518              JUNCTION     0.07     0.63    -0.25     0  13:20        0.63
  j_90519              JUNCTION     0.06     0.60    -0.23     0  13:20        0.60
  j_90520              JUNCTION     0.03     0.25    -0.10     0  13:15        0.25
  j_90521              JUNCTION     0.01     0.15    -0.09     0  13:15        0.15
  j_90522              JUNCTION     0.03     0.18    -0.09     0  13:15        0.18
  j_90523              JUNCTION     0.01     0.15    -0.05     0  13:15        0.15
  j_90524              JUNCTION     0.05     0.53     0.08     0  13:20        0.52
  j_90525              JUNCTION     0.04     0.43     0.08     0  13:20        0.43
  j_90526              JUNCTION     0.03     0.34     0.08     0  13:20        0.34
  j_90527              JUNCTION     0.02     0.26     0.08     0  13:20        0.26
  j_90549              JUNCTION     0.02     0.19    -0.22     0  13:15        0.19
  j_90550              JUNCTION     0.14     0.80    -0.43     0  13:21        0.79
  j_90551              JUNCTION     0.01     0.07     0.12     0  13:11        0.07
  j_90553              JUNCTION     0.05     0.44     0.06     0  13:20        0.44
  j_90554              JUNCTION     0.03     0.40     0.06     0  13:20        0.40
  j_90555              JUNCTION     0.02     0.30     0.06     0  13:20        0.30
  j_90556              JUNCTION     0.05     0.43     0.06     0  13:20        0.43
  j_90557              JUNCTION     0.05     0.44     0.06     0  13:20        0.44
  j_90558              JUNCTION     0.10     0.75     0.04     0  13:19        0.75
  j_90559              JUNCTION     0.06     0.63     0.05     0  13:20        0.63
  j_90560              JUNCTION     0.06     0.61     0.05     0  13:19        0.61
  j_90561              JUNCTION     0.03     0.43     0.05     0  13:19        0.43
  j_90562              JUNCTION     0.05     0.50     0.05     0  13:19        0.50
  j_90563              JUNCTION     0.08     0.72     0.02     0  13:20        0.72
  j_90564              JUNCTION     0.11     0.83     0.02     0  13:20        0.83
  j_90565              JUNCTION     0.02     0.36     0.02     0  13:20        0.35
  j_90566              JUNCTION     0.01     0.21     0.01     0  13:20        0.21
  j_90567              JUNCTION     0.01     0.09     0.12     0  13:11        0.09
  j_90568              JUNCTION     0.13     0.83    -0.28     0  13:21        0.82
  j_90569              JUNCTION     0.05     0.33     0.01     0  13:20        0.33
  j_90570              JUNCTION     0.01     0.09     0.01     0  13:20        0.09
  j_90571              JUNCTION     0.03     0.44     0.01     0  13:20        0.44
  j_90572              JUNCTION     0.12     0.87     0.01     0  13:20        0.86
  j_90573              JUNCTION     0.02     0.35     0.01     0  13:20        0.35
  j_90574              JUNCTION     0.11     0.79    -0.01     0  13:19        0.79
  j_90575              JUNCTION     0.15     0.87    -0.04     0  13:20        0.87
  j_90576              JUNCTION     0.12     0.83    -0.09     0  13:20        0.82
  j_90577              JUNCTION     0.13     0.85    -0.13     0  13:20        0.84
  j_90578              JUNCTION     0.12     0.82    -0.13     0  13:20        0.81
  j_90579              JUNCTION     0.09     0.75    -0.13     0  13:20        0.74
  j_90580              JUNCTION     0.01     0.14     0.01     0  13:20        0.14
  j_90581              JUNCTION     0.02     0.26     0.02     0  13:20        0.25
  j_90582              JUNCTION     0.02     0.25     0.01     0  13:20        0.25
  j_90583              JUNCTION     0.02     0.31    -0.00     0  13:20        0.31
  j_90584              JUNCTION     0.03     0.36     0.01     0  13:20        0.36
  j_90585              JUNCTION     0.11     0.82    -0.01     0  13:20        0.82
  j_90586              JUNCTION     0.12     0.83     0.01     0  13:20        0.83
  j_90587              JUNCTION     0.11     0.82     0.03     0  13:20        0.81
  j_90588              JUNCTION     0.03     0.39     0.03     0  13:20        0.39
  j_90589              JUNCTION     0.02     0.32     0.04     0  13:20        0.31
  j_90590              JUNCTION     0.02     0.29     0.04     0  13:20        0.29
  j_90591              JUNCTION     0.08     0.67     0.06     0  13:19        0.67
  j_90592              JUNCTION     0.09     0.72     0.05     0  13:19        0.72
  j_90593              JUNCTION     0.11     0.83     0.04     0  13:20        0.82
  j_90594              JUNCTION     0.09     0.74     0.04     0  13:20        0.74
  j_90595              JUNCTION     0.03     0.38     0.04     0  13:20        0.38
  j_90596              JUNCTION     0.02     0.37     0.05     0  13:20        0.36
  j_90597              JUNCTION     0.03     0.33     0.05     0  13:20        0.32
  j_90598              JUNCTION     0.02     0.30     0.05     0  13:20        0.29
  j_90599              JUNCTION     0.03     0.34     0.05     0  13:20        0.33
  j_90600              JUNCTION     0.02     0.27     0.05     0  13:20        0.27
  j_90601              JUNCTION     0.01     0.22     0.05     0  13:20        0.22
  j_90602              JUNCTION     0.03     0.34     0.07     0  13:20        0.33
  j_90603              JUNCTION     0.02     0.36     0.07     0  13:20        0.35
  j_90604              JUNCTION     0.03     0.42     0.06     0  13:20        0.42
  j_90605              JUNCTION     0.06     0.52     0.06     0  13:20        0.51
  j_90606              JUNCTION     0.06     0.50     0.07     0  13:20        0.49
  j_90607              JUNCTION     0.04     0.45     0.07     0  13:21        0.44
  j_90608              JUNCTION     0.03     0.41     0.07     0  13:21        0.40
  j_90609              JUNCTION     0.01     0.24     0.07     0  13:21        0.23
  j_90610              JUNCTION     0.02     0.29     0.07     0  13:21        0.28
  j_90611              JUNCTION     0.02     0.34     0.07     0  13:20        0.33
  j_90612              JUNCTION     0.02     0.28     0.07     0  13:21        0.28
  j_90613              JUNCTION     0.01     0.18     0.08     0  13:20        0.17
  j_90615              JUNCTION     0.01     0.13    -0.16     0  13:15        0.13
  j_90616              JUNCTION     0.02     0.17    -0.15     0  13:15        0.17
  j_90617              JUNCTION     0.01     0.09    -0.14     0  13:15        0.09
  j_90618              JUNCTION     0.02     0.23    -0.14     0  13:20        0.23
  j_90619              JUNCTION     0.13     0.85    -0.15     0  13:21        0.85
  j_90620              JUNCTION     0.16     0.91    -0.14     0  13:21        0.91
  j_90621              JUNCTION     0.13     0.86    -0.12     0  13:21        0.86
  j_90623              JUNCTION     0.11     0.80    -0.10     0  13:20        0.80
  j_90624              JUNCTION     0.07     0.69    -0.10     0  13:20        0.69
  j_90625              JUNCTION     0.06     0.64    -0.06     0  13:21        0.62
  j_90626              JUNCTION     0.09     0.74    -0.08     0  13:21        0.73
  j_90627              JUNCTION     0.11     0.80    -0.08     0  13:20        0.79
  j_90628              JUNCTION     0.03     0.34    -0.07     0  13:20        0.33
  j_90629              JUNCTION     0.02     0.28    -0.07     0  13:20        0.28
  j_90630              JUNCTION     0.02     0.14    -0.05     0  13:15        0.14
  j_90631              JUNCTION     0.03     0.36    -0.06     0  13:20        0.36
  j_90632              JUNCTION     0.03     0.39    -0.06     0  13:21        0.38
  j_90633              JUNCTION     0.03     0.42    -0.06     0  13:21        0.41
  j_90634              JUNCTION     0.14     0.82    -0.06     0  13:21        0.81
  j_90635              JUNCTION     0.07     0.64    -0.06     0  13:21        0.63
  j_90636              JUNCTION     0.06     0.52    -0.05     0  13:19        0.50
  j_90637              JUNCTION     0.08     0.66    -0.05     0  13:21        0.65
  j_90638              JUNCTION     0.04     0.43    -0.05     0  13:21        0.43
  j_90639              JUNCTION     0.03     0.35    -0.05     0  13:20        0.35
  j_90640              JUNCTION     0.02     0.24    -0.05     0  13:20        0.23
  j_90641              JUNCTION     0.08     0.71    -0.13     0  13:21        0.70
  j_90642              JUNCTION     0.06     0.60    -0.13     0  13:21        0.59
  j_90643              JUNCTION     0.06     0.59    -0.13     0  13:22        0.58
  j_90644              JUNCTION     0.01     0.12    -0.03     0  13:15        0.12
  j_90645              JUNCTION     0.01     0.05     0.12     0  13:15        0.05
  j_90646              JUNCTION     0.03     0.17     0.07     0  13:15        0.17
  j_90647              JUNCTION     0.01     0.08     0.11     0  13:15        0.08
  j_90648              JUNCTION     0.02     0.25    -0.04     0  13:21        0.24
  j_90649              JUNCTION     0.02     0.18    -0.03     0  13:20        0.17
  j_90650              JUNCTION     0.03     0.35    -0.03     0  13:21        0.34
  j_90651              JUNCTION     0.03     0.39    -0.05     0  13:21        0.37
  j_90652              JUNCTION     0.03     0.37    -0.05     0  13:21        0.36
  j_90653              JUNCTION     0.01     0.19    -0.05     0  13:20        0.18
  j_90654              JUNCTION     0.07     0.59    -0.01     0  13:22        0.58
  j_90655              JUNCTION     0.09     0.64    -0.02     0  13:22        0.63
  j_90656              JUNCTION     0.09     0.65    -0.04     0  13:21        0.64
  j_90657              JUNCTION     0.01     0.08     0.31     0  13:15        0.08
  j_90658              JUNCTION     0.01     0.12     0.25     0  13:15        0.12
  j_90659              JUNCTION     0.01     0.13     0.15     0  13:15        0.13
  j_90662              JUNCTION     0.01     0.13    -0.19     0  13:20        0.13
  j_90663              JUNCTION     0.04     0.48     0.05     0  13:20        0.48
  j_90664              JUNCTION     0.01     0.23    -0.04     0  13:21        0.22
  j_90665              JUNCTION     0.12     0.83    -0.14     0  13:21        0.83
  j_90669              JUNCTION     0.06     0.37     0.14     0  13:19        0.37
  j_90670              JUNCTION     0.07     0.39     0.14     0  13:19        0.39
  j_90671              JUNCTION     0.08     0.40     0.14     0  13:20        0.40
  j_90672              JUNCTION     0.04     0.46     0.00     0  13:21        0.46
  j_90673              JUNCTION     0.07     0.53     0.00     0  13:22        0.52
  j_90674              JUNCTION     0.07     0.59    -0.01     0  13:22        0.58
  j_90675              JUNCTION     0.05     0.35     0.13     0  13:20        0.35
  j_90676              JUNCTION     0.07     0.38     0.14     0  13:20        0.38
  j_90677              JUNCTION     0.10     0.43     0.14     0  13:20        0.43
  j_90678              JUNCTION     0.02     0.25     0.15     0  13:19        0.25
  j_90679              JUNCTION     0.01     0.17     0.15     0  13:19        0.17
  j_90680              JUNCTION     0.05     0.38     0.08     0  13:20        0.38
  j_90681              JUNCTION     0.06     0.42     0.04     0  13:20        0.42
  j_90682              JUNCTION     0.01     0.07     0.04     0  13:20        0.07
  j_90683              JUNCTION     0.05     0.47     0.02     0  13:20        0.46
  j_90684              JUNCTION     0.03     0.38     0.02     0  13:20        0.37
  j_90685              JUNCTION     0.01     0.06     0.17     0  13:15        0.06
  j_90686              JUNCTION     0.04     0.42     0.02     0  13:21        0.41
  j_90688              JUNCTION     0.01     0.07     0.52     0  13:15        0.07
  j_90689              JUNCTION     0.02     0.17    -0.13     0  13:15        0.17
  j_90690              JUNCTION     0.02     0.15    -0.10     0  13:15        0.15
  j_90691              JUNCTION     0.01     0.09     0.19     0  13:15        0.09
  j_90692              JUNCTION     0.01     0.06     0.26     0  13:15        0.06
  j_90693              JUNCTION     0.00     0.04     0.07     0  13:15        0.04
  j_90694              JUNCTION     0.01     0.07     0.13     0  13:15        0.07
  j_90695              JUNCTION     0.01     0.06     0.56     0  13:15        0.06
  j_90696              JUNCTION     0.01     0.09     0.09     0  13:15        0.09
  j_90697              JUNCTION     0.01     0.12     0.05     0  13:15        0.12
  j_90698              JUNCTION     0.01     0.13     0.01     0  13:15        0.13
  j_90699              JUNCTION     0.01     0.14    -0.04     0  13:15        0.14
  j_90700              JUNCTION     0.00     0.04     0.54     0  13:15        0.04
  j_90701              JUNCTION     0.00     0.04     0.54     0  13:15        0.04
  j_90702              JUNCTION     0.00     0.03     0.53     0  13:15        0.03
  j_90703              JUNCTION     0.05     0.53     0.05     0  13:19        0.53
  j_90704              JUNCTION     0.02     0.27     0.05     0  13:20        0.27
  j_90705              JUNCTION     0.02     0.31     0.05     0  13:20        0.31
  j_90706              JUNCTION     0.07     0.61     0.07     0  13:19        0.60
  j_90707              JUNCTION     0.04     0.45     0.07     0  13:19        0.45
  j_90708              JUNCTION     0.01     0.18     0.07     0  13:20        0.18
  j_90709              JUNCTION     0.02     0.28     0.08     0  13:20        0.28
  j_90710              JUNCTION     0.01     0.13     0.08     0  13:20        0.13
  j_90724              JUNCTION     0.08     0.40     0.14     0  13:19        0.40
  j_90725              JUNCTION     0.01     0.15     0.15     0  13:17        0.14
  j_90726              JUNCTION     0.01     0.10     0.15     0  13:16        0.09
  j_90727              JUNCTION     0.00     0.05     0.15     0  13:17        0.04
  j_90728              JUNCTION     0.01     0.09     0.15     0  13:17        0.09
  j_90729              JUNCTION     0.00     0.04     0.27     0  13:15        0.04
  j_90730              JUNCTION     0.02     0.23     0.15     0  13:19        0.22
  j_90731              JUNCTION     0.01     0.07     0.17     0  13:15        0.07
  j_90732              JUNCTION     0.00     0.03     0.18     0  13:15        0.03
  j_90733              JUNCTION     0.03     0.28     0.14     0  13:19        0.28
  j_91272              JUNCTION     0.00     0.00     0.17     0  00:00        0.00
  j_91273              JUNCTION     0.00     0.00     0.47     0  00:00        0.00
  j_91274              JUNCTION     0.00     0.00     0.23     0  00:00        0.00
  j_91275              JUNCTION     0.00     0.00     0.47     0  00:00        0.00
  j_91276              JUNCTION     0.00     0.00     0.28     0  00:00        0.00
  j_91277              JUNCTION     0.00     0.00     0.51     0  00:00        0.00
  j_91278              JUNCTION     0.00     0.00     0.35     0  00:00        0.00
  j_91279              JUNCTION     0.00     0.00     0.50     0  00:00        0.00
  j_91292              JUNCTION     0.00     0.00    -0.01     0  00:00        0.00
  j_91293              JUNCTION     0.00     0.14    -0.09     0  13:20        0.14
  j_91294              JUNCTION     0.00     0.00     0.31     0  00:00        0.00
  j_90552              OUTFALL      0.00     0.00    -1.29     0  00:00        0.00
  j_90431              OUTFALL      0.02     0.18    -1.43     0  13:20        0.18
  
  
  *******************
  Node Inflow Summary
  *******************
  
  -------------------------------------------------------------------------------------------------
                                  Maximum  Maximum                  Lateral       Total        Flow
                                  Lateral    Total  Time of Max      Inflow      Inflow     Balance
                                   Inflow   Inflow   Occurrence      Volume      Volume       Error
  Node                 Type           CMS      CMS  days hr:min    10^6 ltr    10^6 ltr     Percent
  -------------------------------------------------------------------------------------------------
  j_9006F              JUNCTION     0.003    0.005     0  13:12     0.00923     0.00964       0.000
  j_90334              JUNCTION     0.010    0.010     0  13:11        0.03        0.03       0.000
  j_90335              JUNCTION     0.017    0.017     0  13:11      0.0447      0.0447       0.000
  j_90336              JUNCTION     0.003    0.013     0  13:15     0.00776      0.0371       0.000
  j_90363              JUNCTION     0.019    0.019     0  13:11        0.05      0.0502       0.000
  j_90364              JUNCTION     0.005    0.035     0  13:12      0.0139      0.0972      -0.168
  j_90365              JUNCTION     0.001    0.004     0  13:06     0.00237      0.0032       1.667
  j_90366              JUNCTION     0.006    0.006     0  13:11      0.0168      0.0168       0.000
  j_90367              JUNCTION     0.006    0.047     0  13:12       0.016        0.13      -0.015
  j_90368              JUNCTION     0.000    0.002     0  13:10           0    0.000692       1.081
  j_90369              JUNCTION     0.014    0.014     0  13:11      0.0388      0.0388       0.000
  j_90370              JUNCTION     0.006    0.036     0  13:14      0.0171       0.101      -0.240
  j_90371              JUNCTION     0.009    0.092     0  13:15      0.0225       0.309      -0.016
  j_90372              JUNCTION     0.003    0.003     0  13:11     0.00945     0.00945       0.000
  j_90373              JUNCTION     0.006    0.019     0  13:08      0.0155      0.0567      -0.034
  j_90374              JUNCTION     0.000    0.006     0  13:13           0     0.00258       0.000
  j_90375              JUNCTION     0.008    0.012     0  13:15      0.0197      0.0333      -0.098
  j_90376              JUNCTION     0.001    0.004     0  13:15     0.00333      0.0118       0.000
  j_90377              JUNCTION     0.006    0.011     0  13:15      0.0165      0.0283      -0.307
  j_90378              JUNCTION     0.007    0.017     0  13:15      0.0183       0.046       0.000
  j_90379              JUNCTION     0.010    0.010     0  13:11      0.0276      0.0276      -0.384
  j_90380              JUNCTION     0.012    0.012     0  13:11      0.0313      0.0313       0.000
  j_90381              JUNCTION     0.007    0.018     0  13:15      0.0188      0.0502       0.517
  j_90382              JUNCTION     0.008    0.198     0  13:15      0.0224       0.738      -0.028
  j_90383              JUNCTION     0.007    0.183     0  13:15      0.0191       0.666      -0.022
  j_90384              JUNCTION     0.004    0.020     0  13:13      0.0109       0.054       0.248
  j_90385              JUNCTION     0.006    0.016     0  13:15      0.0152      0.0432       0.201
  j_90386              JUNCTION     0.010    0.010     0  13:11      0.0279      0.0279      -0.336
  j_90387              JUNCTION     0.007    0.007     0  13:11      0.0179      0.0179       0.000
  j_90388              JUNCTION     0.004    0.011     0  13:15       0.011      0.0289       1.038
  j_90389              JUNCTION     0.005    0.135     0  13:15      0.0146       0.464       0.000
  j_90390              JUNCTION     0.003    0.099     0  13:15     0.00805       0.346      -0.017
  j_90391              JUNCTION     0.004    0.035     0  13:15      0.0105       0.104       0.004
  j_90392              JUNCTION     0.008    0.032     0  13:15      0.0214      0.0936       0.066
  j_90393              JUNCTION     0.013    0.025     0  13:15       0.035      0.0721      -0.088
  j_90394              JUNCTION     0.004    0.010     0  13:15      0.0111      0.0293       0.116
  j_90395              JUNCTION     0.005    0.007     0  13:15       0.013      0.0182       0.053
  j_90396              JUNCTION     0.002    0.002     0  13:13     0.00514     0.00514      -0.285
  j_90397              JUNCTION     0.006    0.164     0  13:15      0.0154       0.593       0.005
  j_90398              JUNCTION     0.006    0.034     0  13:09      0.0175       0.113      -0.184
  j_90399              JUNCTION     0.007    0.009     0  13:14      0.0179       0.025       0.801
  j_90400              JUNCTION     0.004    0.006     0  13:20      0.0114       0.014      -0.135
  j_90401              JUNCTION     0.007    0.010     0  13:20      0.0179      0.0248       0.093
  j_90402              JUNCTION     0.007    0.010     0  13:20      0.0179      0.0225       0.000
  j_90403              JUNCTION     0.004    0.006     0  13:20      0.0107      0.0115      -0.336
  j_90404              JUNCTION     0.006    0.008     0  13:14      0.0175      0.0225       0.562
  j_90405              JUNCTION     0.007    0.023     0  13:10      0.0188      0.0714       0.028
  j_90406              JUNCTION     0.006    0.020     0  13:14      0.0176      0.0525      -0.191
  j_90407              JUNCTION     0.005    0.006     0  13:15      0.0137      0.0142      -0.776
  j_90408              JUNCTION     0.013    0.014     0  13:20      0.0357      0.0368       0.179
  j_90427              JUNCTION     0.014    0.023     0  13:11      0.0375      0.0724       0.000
  j_90428              JUNCTION     0.008    0.016     0  13:11      0.0216      0.0389      -0.227
  j_90430              JUNCTION     0.004    0.764     0  13:20      0.0114        2.78       0.005
  j_90433              JUNCTION     0.002    0.002     0  13:11     0.00584      0.0059       0.000
  j_90434              JUNCTION     0.005    0.013     0  13:15      0.0129      0.0354       1.112
  j_90435              JUNCTION     0.008    0.020     0  13:15      0.0201       0.055      -0.035
  j_90436              JUNCTION     0.004    0.051     0  13:15      0.0115       0.139       0.000
  j_90437              JUNCTION     0.010    0.763     0  13:20      0.0259        2.77      -0.003
  j_90438              JUNCTION     0.008    0.701     0  13:20      0.0207        2.55       0.002
  j_90439              JUNCTION     0.004    0.026     0  13:20      0.0119      0.0534       0.000
  j_90440              JUNCTION     0.013    0.020     0  13:20      0.0364      0.0406       0.179
  j_90441              JUNCTION     0.006    0.006     0  13:11      0.0172      0.0172      -0.111
  j_90442              JUNCTION     0.014    0.162     0  13:20        0.04       0.594       0.008
  j_90443              JUNCTION     0.020    0.669     0  13:20      0.0545        2.47      -0.014
  j_90444              JUNCTION     0.008    0.244     0  13:15      0.0209       0.972       0.002
  j_90445              JUNCTION     0.007    0.024     0  13:15      0.0187      0.0644       0.007
  j_90446              JUNCTION     0.007    0.017     0  13:15      0.0181      0.0458       0.178
[...]
  c_906202                1.00   0.42  0.00  0.00  0.09  0.00  0.00  0.48  0.02  0.00
  c_906211                1.00   0.42  0.00  0.00  0.58  0.00  0.00  0.00  0.23  0.00
  c_906231                1.00   0.42  0.00  0.00  0.58  0.00  0.00  0.00  0.32  0.00
  c_906241                1.00   0.65  0.01  0.00  0.33  0.00  0.00  0.01  0.36  0.00
  c_906261                1.00   0.46  0.21  0.00  0.33  0.00  0.00  0.00  0.42  0.00
  c_906271                1.00   0.45  0.01  0.00  0.33  0.00  0.00  0.22  0.27  0.00
  c_906272                1.00   0.42  0.00  0.00  0.58  0.00  0.00  0.00  0.00  0.00
  c_906281                1.00   0.42  0.00  0.00  0.12  0.00  0.00  0.45  0.04  0.00
  c_906291                1.00   0.42  0.27  0.00  0.30  0.00  0.00  0.00  0.49  0.00
  c_906301                1.00   0.42  0.00  0.00  0.01  0.00  0.00  0.56  0.00  0.00
  c_906321                1.00   0.70  0.25  0.00  0.05  0.00  0.01  0.00  0.29  0.00
  c_906322                1.00   0.42  0.00  0.00  0.17  0.00  0.00  0.40  0.00  0.00
  c_906331                1.00   0.42  0.00  0.00  0.58  0.00  0.00  0.00  0.36  0.00
  c_906341                1.00   0.42  0.00  0.00  0.15  0.00  0.00  0.42  0.05  0.00
  c_906342                1.00   0.43  0.00  0.00  0.41  0.00  0.00  0.16  0.00  0.00
  c_906351                1.00   0.67  0.10  0.00  0.23  0.00  0.00  0.00  0.42  0.00
  c_906352                1.00   0.42  0.00  0.00  0.21  0.00  0.00  0.36  0.00  0.00
  c_906361                1.00   0.43  0.00  0.00  0.29  0.00  0.00  0.28  0.10  0.00
  c_906371                1.00   0.42  0.00  0.00  0.58  0.00  0.00  0.00  0.43  0.00
  c_906381                1.00   0.43  0.00  0.00  0.14  0.00  0.00  0.44  0.03  0.00
  c_906391                1.00   0.42  0.19  0.00  0.38  0.00  0.00  0.00  0.50  0.00
  c_906401                1.00   0.42  0.46  0.00  0.07  0.00  0.05  0.00  0.26  0.00
  c_906402                1.00   0.42  0.00  0.00  0.14  0.00  0.00  0.44  0.03  0.00
  c_906411                1.00   0.63  0.01  0.00  0.36  0.00  0.00  0.00  0.31  0.00
  c_906421                1.00   0.64  0.02  0.00  0.34  0.00  0.00  0.00  0.42  0.00
  c_906431                1.00   0.66  0.00  0.00  0.33  0.00  0.00  0.00  0.11  0.00
  c_906441                1.00   0.42  0.00  0.00  0.01  0.00  0.00  0.57  0.00  0.00
  c_906461                1.00   0.42  0.22  0.00  0.36  0.00  0.00  0.00  0.56  0.00
  c_906471                1.00   0.69  0.01  0.00  0.28  0.00  0.00  0.01  0.54  0.00
  c_906481                1.00   0.42  0.29  0.00  0.29  0.00  0.00  0.00  0.52  0.00
  c_906491                1.00   0.80  0.00  0.00  0.16  0.00  0.00  0.04  0.04  0.00
  c_906492                1.00   0.43  0.00  0.00  0.00  0.00  0.00  0.57  0.00  0.00
  c_906501                1.00   0.42  0.00  0.00  0.58  0.00  0.00  0.00  0.54  0.00
  c_906511                1.00   0.42  0.19  0.00  0.38  0.00  0.00  0.00  0.50  0.00
  c_906521                1.00   0.62  0.04  0.00  0.34  0.00  0.00  0.00  0.28  0.00
  c_906531                1.00   0.66  0.05  0.00  0.29  0.00  0.00  0.00  0.53  0.00
  c_906541                1.00   0.42  0.00  0.00  0.57  0.00  0.00  0.00  0.35  0.00
  c_906561                1.00   0.42  0.00  0.00  0.31  0.00  0.26  0.00  0.00  0.00
  c_906562                1.00   0.42  0.00  0.00  0.58  0.00  0.00  0.00  0.00  0.00
  c_906563                1.00   0.42  0.00  0.00  0.13  0.00  0.00  0.44  0.04  0.00
  c_906581                1.00   0.71  0.03  0.00  0.27  0.00  0.00  0.00  0.55  0.00
  c_906591                1.00   0.42  0.00  0.00  0.00  0.00  0.00  0.58  0.00  0.00
  c_906592                1.00   0.42  0.28  0.00  0.29  0.00  0.00  0.00  0.54  0.00
  c_906621                1.00   0.42  0.00  0.00  0.00  0.00  0.00  0.58  0.00  0.00
  c_906622                1.00   0.42  0.00  0.00  0.46  0.11  0.00  0.00  0.41  0.00
  c_906631                1.00   0.42  0.00  0.00  0.13  0.00  0.00  0.45  0.00  0.00
  c_906641                1.00   0.42  0.00  0.00  0.15  0.00  0.00  0.42  0.00  0.00
  c_906651                1.00   0.42  0.00  0.00  0.40  0.00  0.00  0.18  0.00  0.00
  c_906701                1.00   0.42  0.00  0.00  0.58  0.00  0.00  0.00  0.00  0.00
  c_906731                1.00   0.42  0.00  0.00  0.25  0.00  0.00  0.33  0.00  0.00
  c_906741                1.00   0.42  0.00  0.00  0.58  0.00  0.00  0.00  0.00  0.00
  c_906742                1.00   0.43  0.00  0.00  0.41  0.00  0.00  0.16  0.04  0.00
  c_906751                1.00   0.55  0.12  0.00  0.33  0.00  0.00  0.00  0.32  0.00
  c_906761                1.00   0.42  0.00  0.00  0.58  0.00  0.00  0.00  0.01  0.00
  c_906771                1.00   0.42  0.00  0.00  0.57  0.00  0.00  0.00  0.00  0.00
  c_906772                1.00   0.42  0.00  0.00  0.57  0.00  0.00  0.00  0.00  0.00
  c_906781                1.00   0.42  0.23  0.00  0.34  0.00  0.00  0.00  0.45  0.00
  c_906791                1.00   0.66  0.06  0.00  0.28  0.00  0.00  0.00  0.44  0.00
  c_906801                1.00   0.43  0.00  0.00  0.26  0.00  0.00  0.31  0.05  0.00
  c_906811                1.00   0.42  0.00  0.00  0.57  0.00  0.00  0.00  0.44  0.00
  c_906821                1.00   0.42  0.25  0.00  0.33  0.00  0.00  0.00  0.55  0.00
  c_906831                1.00   0.43  0.00  0.00  0.14  0.00  0.00  0.44  0.00  0.00
  c_906832                1.00   0.42  0.00  0.00  0.58  0.00  0.00  0.00  0.45  0.00
  c_906841                1.00   0.42  0.00  0.00  0.18  0.00  0.00  0.40  0.01  0.00
  c_906851                1.00   0.42  0.00  0.00  0.00  0.00  0.00  0.58  0.00  0.00
  c_906861                1.00   0.42  0.23  0.00  0.34  0.00  0.00  0.00  0.38  0.00
  c_906862                1.00   0.66  0.06  0.00  0.29  0.00  0.00  0.00  0.43  0.00
  c_906891                1.00   0.42  0.00  0.00  0.00  0.00  0.00  0.58  0.00  0.00
  c_906892                1.00   0.42  0.00  0.00  0.00  0.00  0.00  0.58  0.00  0.00
  c_906901                1.00   0.42  0.19  0.00  0.39  0.00  0.00  0.00  0.52  0.00
  c_906911                1.00   0.42  0.00  0.00  0.00  0.00  0.00  0.58  0.00  0.00
  c_906921                1.00   0.42  0.24  0.00  0.33  0.00  0.00  0.00  0.56  0.00
  c_906931                1.00   0.67  0.33  0.00  0.00  0.00  0.00  0.00  0.00  0.00
  c_906932                1.00   0.42  0.00  0.00  0.00  0.00  0.00  0.58  0.00  0.00
  c_906941                1.00   0.42  0.56  0.00  0.02  0.00  0.00  0.00  0.31  0.00
  c_906951                1.00   0.42  0.00  0.00  0.00  0.00  0.00  0.58  0.00  0.00
  c_906961                1.00   0.42  0.00  0.00  0.58  0.00  0.00  0.00  0.55  0.00
  c_906971                1.00   0.42  0.00  0.00  0.58  0.00  0.00  0.00  0.55  0.00
  c_906981                1.00   0.42  0.00  0.00  0.58  0.00  0.00  0.00  0.53  0.00
  c_906991                1.00   0.42  0.00  0.00  0.58  0.00  0.00  0.00  0.51  0.00
  c_906992                1.00   0.61  0.03  0.00  0.36  0.00  0.00  0.00  0.53  0.00
  c_907001                1.00   0.42  0.00  0.00  0.00  0.00  0.00  0.58  0.00  0.00
  c_907011                1.00   0.42  0.00  0.00  0.00  0.00  0.00  0.58  0.00  0.00
  c_907021                1.00   0.42  0.00  0.00  0.00  0.00  0.00  0.58  0.00  0.00
  c_907031                1.00   0.42  0.20  0.00  0.37  0.00  0.00  0.00  0.33  0.00
  c_907032                1.00   0.42  0.00  0.00  0.15  0.00  0.00  0.42  0.06  0.00
  c_907033                1.00   0.42  0.00  0.00  0.32  0.00  0.00  0.25  0.12  0.00
  c_907041                1.00   0.42  0.00  0.00  0.16  0.00  0.00  0.42  0.00  0.00
  c_907042                1.00   0.42  0.30  0.00  0.28  0.00  0.00  0.00  0.38  0.00
  c_907051                1.00   0.78  0.18  0.00  0.04  0.00  0.00  0.00  0.00  0.00
  c_907061                1.00   0.42  0.00  0.00  0.58  0.00  0.00  0.00  0.00  0.00
  c_907062                1.00   0.42  0.00  0.00  0.58  0.00  0.00  0.00  0.41  0.00
  c_907071                1.00   0.42  0.00  0.00  0.13  0.00  0.00  0.44  0.00  0.00
  c_907081                1.00   0.42  0.00  0.00  0.09  0.00  0.00  0.49  0.04  0.00
  c_907091                1.00   0.42  0.17  0.00  0.40  0.00  0.00  0.00  0.51  0.00
  c_907101                1.00   0.60  0.07  0.00  0.33  0.00  0.00  0.00  0.52  0.00
  c_907241                1.00   0.42  0.00  0.00  0.58  0.00  0.00  0.00  0.00  0.00
  c_907242                1.00   0.42  0.00  0.00  0.58  0.00  0.00  0.00  0.00  0.00
  c_907251                1.00   0.42  0.00  0.00  0.32  0.00  0.00  0.25  0.51  0.00
  c_907261                1.00   0.42  0.30  0.00  0.28  0.00  0.00  0.00  0.53  0.00
  c_907271                1.00   0.72  0.02  0.00  0.26  0.00  0.00  0.00  0.53  0.00
  c_907281                1.00   0.63  0.37  0.00  0.00  0.00  0.00  0.00  0.00  0.00
  c_907291                1.00   0.63  0.04  0.00  0.33  0.00  0.00  0.00  0.56  0.00
  c_907301                1.00   0.61  0.02  0.00  0.37  0.00  0.00  0.00  0.55  0.00
  c_907311                1.00   0.61  0.04  0.00  0.35  0.00  0.00  0.00  0.55  0.00
  c_907321                1.00   0.65  0.08  0.00  0.28  0.00  0.00  0.00  0.56  0.00
  c_907331                1.00   0.42  0.18  0.00  0.39  0.00  0.00  0.00  0.42  0.00
  c_907332                1.00   0.42  0.00  0.00  0.32  0.00  0.00  0.26  0.12  0.00
  c_912721                1.00   1.00  0.00  0.00  0.00  0.00  0.00  0.00  0.00  0.00
  c_912731                1.00   1.00  0.00  0.00  0.00  0.00  0.00  0.00  0.00  0.00
  c_912741                1.00   1.00  0.00  0.00  0.00  0.00  0.00  0.00  0.00  0.00
  c_912751                1.00   1.00  0.00  0.00  0.00  0.00  0.00  0.00  0.00  0.00
  c_912761                1.00   1.00  0.00  0.00  0.00  0.00  0.00  0.00  0.00  0.00
  c_912771                1.00   1.00  0.00  0.00  0.00  0.00  0.00  0.00  0.00  0.00
  c_912781                1.00   1.00  0.00  0.00  0.00  0.00  0.00  0.00  0.00  0.00
  c_912791                1.00   1.00  0.00  0.00  0.00  0.00  0.00  0.00  0.00  0.00
  c_912931                1.00   0.68  0.32  0.00  0.00  0.00  0.00  0.00  0.00  0.00
  c_912932                1.00   0.67  0.01  0.00  0.04  0.00  0.00  0.28  0.00  0.00
  c_912941                1.00   1.00  0.00  0.00  0.00  0.00  0.00  0.00  0.00  0.00
  
  
  *************************
  Conduit Surcharge Summary
  *************************
  
  ----------------------------------------------------------------------------
                                                           Hours        Hours 
                         --------- Hours Full --------   Above Full   Capacity
  Conduit                Both Ends  Upstream  Dnstream   Normal Flow   Limited
  ----------------------------------------------------------------------------
  c_903642                    0.01      0.01      0.01      1.06         0.01
  c_903672                    0.01      0.01      0.01      0.15         0.01
  c_903711                    0.01      0.01      0.10      0.01         0.01
  c_903731                    0.01      0.01      0.10      0.01         0.01
  c_903732                    0.01      0.01      0.01      0.01         0.01
  c_903972                    0.01      0.01      0.05      0.01         0.01
  c_903981                    0.07      0.07      0.32      0.01         0.01
  c_904051                    0.01      0.01      0.07      0.01         0.01
  c_904381                    0.01      0.01      0.01      0.35         0.01
  c_904421                    0.01      0.01      0.01      1.31         0.01
  c_904441                    0.09      0.09      0.31      0.01         0.01
  c_904512                    0.01      0.01      0.09      0.01         0.01
  c_904571                    0.01      0.01      0.01      0.06         0.01
  c_904592                    0.01      0.01      0.01      0.48         0.01
  c_904611                    0.01      0.01      0.05      0.01         0.01
  c_904621                    0.01      0.01      0.01      0.02         0.01
  c_904641                    0.01      0.01      0.06      0.01         0.01
  c_904701                    0.01      0.01      0.04      0.01         0.01
  c_904791                    0.01      0.01      0.02      0.01         0.01
  c_904821                    0.02      0.02      0.10      0.01         0.01
  c_904822                    0.01      0.01      0.10      0.01         0.01
  c_904861                    0.06      0.06      0.17      0.01         0.01
  c_904871                    0.06      0.06      0.28      0.01         0.01
  c_904881                    0.28      0.28      0.47      0.01         0.01
  c_904921                    0.38      0.38      0.51      0.01         0.02
  c_904922                    0.01      0.01      0.19      0.01         0.01
  c_904951                    0.80      0.80      0.84      0.01         0.01
  c_904952                    1.20      1.21      1.23      0.08         0.01
  c_904961                    0.01      0.01      0.18      0.01         0.01
  c_904991                    0.09      0.10      0.09      0.23         0.06
  c_905001                    0.01      0.01      0.10      0.01         0.01
  c_905051                    0.26      0.26      0.66      0.01         0.01
  c_905061                    0.26      0.26      0.31      0.01         0.01
  c_905071                    0.01      0.01      0.31      0.01         0.01
  c_905081                    0.14      0.14      0.25      0.01         0.01
  c_905111                    0.01      0.01      0.08      0.01         0.01
  c_905121                    0.54      0.54      0.67      0.01         0.01
  c_905131                    0.01      0.01      0.23      0.01         0.01
  c_905161                    0.01      0.01      0.01      0.23         0.01
  c_905171                    0.06      0.06      0.20      0.01         0.01
  c_905182                    0.01      0.01      0.11      0.22         0.01
  c_905192                    0.02      0.02      0.11      0.01         0.01
  c_905241                    0.26      0.26      0.58      0.01         0.01
  c_905251                    0.01      0.01      0.26      0.01         0.01
  c_905521                    0.01      0.01      0.01      0.59         0.01
  c_905571                    0.01      0.01      0.01      0.96         0.01
  c_905581                    0.01      0.01      0.30      0.01         0.01
  c_905591                    0.07      0.07      0.41      0.01         0.01
  c_905601                    0.44      0.44      0.52      0.01         0.01
  c_905602                    0.01      0.01      0.44      0.01         0.01
  c_905611                    0.01      0.01      0.02      0.01         0.01
  c_905621                    0.01      0.01      0.12      0.01         0.01
  c_905622                    0.01      0.01      0.12      0.01         0.01
  c_905631                    0.06      0.06      0.20      0.01         0.01
  c_905632                    0.32      0.32      0.36      2.53         0.01
  c_905641                    0.01      0.01      0.10      0.01         0.01
  c_905651                    0.01      0.01      0.14      0.01         0.01
  c_905721                    0.21      0.21      0.23      0.01         0.01
  c_905722                    0.01      0.01      0.32      0.01         0.01
  c_905732                    0.01      0.01      0.18      0.01         0.01
  c_905741                    1.23      1.23      1.46      0.01         0.01
  c_905751                    1.30      1.30      2.03      0.01         0.01
  c_905752                    0.32      0.32      0.48      0.01         0.01
  c_905781                    0.28      0.28      0.36      0.01         0.01
  c_905791                    0.01      0.01      0.28      0.01         0.01
  c_905821                    0.01      0.01      0.01      0.23         0.01
  c_905851                    0.23      0.23      0.43      0.01         0.01
  c_905852                    0.01      0.01      0.20      0.01         0.01
  c_905861                    0.20      0.26      0.20      2.76         0.20
  c_905862                    0.01      0.01      0.12      0.01         0.01
  c_905871                    0.21      0.21      0.26      0.01         0.01
  c_905881                    0.01      0.01      0.37      0.01         0.01
  c_905901                    0.01      0.01      0.14      0.01         0.01
  c_905921                    0.81      0.81      0.99      0.01         0.01
  c_905931                    0.21      0.24      0.21      2.56         0.21
  c_905941                    0.01      0.01      0.24      0.01         0.01
  c_905942                    0.82      0.82      0.99      1.45         0.01
  c_905951                    0.01      0.01      0.18      0.01         0.01
  c_905961                    0.01      0.01      0.18      0.01         0.01
  c_906051                    0.01      0.01      0.20      0.01         0.01
  c_906052                    0.01      0.01      0.03      0.01         0.01
  c_906061                    0.07      0.07      0.20      0.01         0.01
  c_906071                    0.01      0.01      0.15      0.01         0.01
  c_906111                    0.01      0.01      0.04      0.01         0.01
  c_906201                    0.01      0.01      0.01      2.39         0.01
  c_906211                    0.01      0.01      0.08      0.01         0.01
  c_906241                    0.83      0.83      1.20      0.01         0.01
  c_906261                    0.72      0.72      1.01      0.01         0.01
  c_906271                    1.01      1.01      1.13      0.01         0.01
  c_906322                    0.01      0.01      0.01      0.88         0.01
  c_906341                    0.01      0.01      0.30      0.01         0.01
  c_906351                    0.51      0.51      0.72      0.01         0.01
  c_906352                    0.73      0.73      0.75      0.01         0.01
  c_906361                    0.14      0.14      0.61      0.01         0.01
  c_906381                    0.01      0.01      0.16      0.01         0.01
  c_906411                    0.01      0.01      0.01      0.01         0.01
  c_906511                    0.01      0.01      0.23      0.01         0.01
  c_906561                    0.01      0.01      0.01      0.28         0.01
  c_906563                    0.01      0.01      0.05      0.01         0.01
  c_906631                    0.07      0.08      0.07      0.50         0.05
  c_906651                    1.82      1.82      1.82      0.01         0.12
  c_906731                    0.81      0.81      0.81      0.51         0.31
  c_906741                    0.01      0.01      0.01      1.31         0.01
  c_906781                    0.01      0.01      0.90      0.01         0.01
  c_906821                    0.01      0.01      0.55      0.01         0.01
  c_906841                    0.52      0.52      0.59      0.01         0.01
  c_907031                    0.14      0.14      0.21      0.01         0.01
  c_907032                    0.04      0.04      0.38      0.01         0.01
  c_907033                    0.21      0.21      0.30      0.01         0.01
  c_907061                    0.57      0.57      0.79      0.01         0.01
  c_907062                    0.57      0.57      0.81      0.01         0.01
  c_907071                    0.19      0.19      0.21      0.01         0.01
  c_907081                    0.01      0.01      0.05      0.01         0.01
  c_907091                    0.01      0.01      0.53      0.01         0.01
  c_907242                    0.01      0.01      0.01      0.04         0.01
  c_907251                    0.01      0.01      0.12      0.01         0.01
  c_907332                    0.01      0.01      0.11      0.01         0.01
  

  Analysis begun on:  Sun Jun 12 01:35:05 2022
  Analysis ended on:  Sun Jun 12 01:35:25 2022
  Total elapsed time: 00:00:20