
  EPA STORM WATER MANAGEMENT MODEL - VERSION 5.1 (Build 5.1.015)
  --------------------------------------------------------------

  WARNING 04: minimum elevation drop used for Conduit c_903642
  WARNING 04: minimum elevation drop used for Conduit c_903651
  WARNING 04: minimum elevation drop used for Conduit c_903672
  WARNING 04: minimum elevation drop used for Conduit c_905571
  WARNING 04: minimum elevation drop used for Conduit c_905632
  WARNING 04: minimum elevation drop used for Conduit c_905821
  WARNING 04: minimum elevation drop used for Conduit c_905861
  WARNING 04: minimum elevation drop used for Conduit c_905931
  WARNING 04: minimum elevation drop used for Conduit c_906201
  WARNING 04: minimum elevation drop used for Conduit c_906322
  WARNING 04: minimum elevation drop used for Conduit c_906631
  WARNING 04: minimum elevation drop used for Conduit c_906641
  WARNING 04: minimum elevation drop used for Conduit c_906651
  WARNING 04: minimum elevation drop used for Conduit c_906731
  WARNING 04: minimum elevation drop used for Conduit c_906741
  WARNING 04: minimum elevation drop used for Conduit c_907242
  
  *********************
  Rainfall File Summary
  *********************
  Station    First        Last         Recording   Periods    Periods    Periods
  ID         Date         Date         Frequency  w/Precip    Missing    Malfunc.
  -------------------------------------------------------------------------------
  R1         01/15/2014   01/16/2014       5 min       363          0          0
  R1         01/15/2014   01/16/2014       5 min       363          0          0
  R1         01/15/2014   01/16/2014       5 min       363          0          0

  
  *********************************************************
  NOTE: The summary statistics displayed in this report are
  based on results found at every computational time step,  
  not just on results from each reporting time step.
  *********************************************************
  
  ****************
  Analysis Options
  ****************
  Flow Units ............... CMS
  Process Models:
    Rainfall/Runoff ........ YES
    RDII ................... NO
    Snowmelt ............... NO
    Groundwater ............ NO
    Flow Routing ........... YES
    Ponding Allowed ........ NO
    Water Quality .......... NO
  Infiltration Method ...... HORTON
  Flow Routing Method ...... DYNWAVE
  Surcharge Method ......... EXTRAN
  Starting Date ............ 01/15/2014 00:00:00
  Ending Date .............. 01/16/2014 19:55:00
  Antecedent Dry Days ...... 0.0
  Report Time Step ......... 00:05:00
  Wet Time Step ............ 00:01:00
  Dry Time Step ............ 00:10:00
  Routing Time Step ........ 1.00 sec
  Variable Time Step ....... YES
  Maximum Trials ........... 12
  Number of Threads ........ 2
  Head Tolerance ........... 0.000200 m
  
  
  **************************        Volume         Depth
  Runoff Quantity Continuity     hectare-m            mm
  **************************     ---------       -------
  Total Precipitation ......         1.321        47.583
  Evaporation Loss .........         0.035         1.256
  Infiltration Loss ........         0.018         0.655
  Surface Runoff ...........         1.175        42.354
  Final Storage ............         0.100         3.586
  Continuity Error (%) .....        -0.562
  
  
  **************************        Volume        Volume
  Flow Routing Continuity        hectare-m      10^6 ltr
  **************************     ---------     ---------
  Dry Weather Inflow .......         0.000         0.000
  Wet Weather Inflow .......         1.175        11.753
  Groundwater Inflow .......         0.000         0.000
  RDII Inflow ..............         0.000         0.000
  External Inflow ..........         0.000         0.000
  External Outflow .........         1.178        11.777
  Flooding Loss ............         0.000         0.000
  Evaporation Loss .........         0.000         0.000
  Exfiltration Loss ........         0.000         0.000
  Initial Stored Volume ....         0.000         0.000
  Final Stored Volume ......         0.001         0.006
  Continuity Error (%) .....        -0.252
  
  
  *************************
  Highest Continuity Errors
  *************************
  Node j_90368 (2.52%)
  Node j_90705 (1.56%)
  Node j_90628 (1.23%)
  Node j_90496 (1.16%)
  Node j_90638 (1.14%)
  
  
  ***************************
  Time-Step Critical Elements
  ***************************
  Link c_904312 (8.67%)
  
  
  ********************************
  Highest Flow Instability Indexes
  ********************************
  All links are stable.
  
  
  *************************
  Routing Time Step Summary
  *************************
  Minimum Time Step           :     0.50 sec
  Average Time Step           :     0.98 sec
  Maximum Time Step           :     1.00 sec
  Percent in Steady State     :     0.19
  Average Iterations per Step :     2.02
  Percent Not Converging      :     0.09
  Time Step Frequencies       :
      1.000 -  0.871 sec      :    94.62 %
      0.871 -  0.758 sec      :     3.12 %
      0.758 -  0.660 sec      :     1.34 %
      0.660 -  0.574 sec      :     0.87 %
      0.574 -  0.500 sec      :     0.04 %
  
  
  ***************************
  Subcatchment Runoff Summary
  ***************************
  
  ------------------------------------------------------------------------------------------------------------------------------
                            Total      Total      Total      Total     Imperv       Perv      Total       Total     Peak  Runoff
                           Precip      Runon       Evap      Infil     Runoff     Runoff     Runoff      Runoff   Runoff   Coeff
  Subcatchment                 mm         mm         mm         mm         mm         mm         mm    10^6 ltr      CMS
  ------------------------------------------------------------------------------------------------------------------------------
  sub_9006F                 47.58       0.00       1.26       0.54      27.20      14.89      42.09        0.02     0.00   0.885
  sub_90334                 47.58       0.00       1.26       1.43       4.92      39.27      44.20        0.05     0.01   0.929
  sub_90335                 47.58       0.00       1.26       0.33      32.56       9.02      41.58        0.08     0.01   0.874
  sub_90336                 47.58       0.00       1.26       1.10      13.16      30.25      43.42        0.01     0.00   0.912
  sub_90363                 47.58       0.00       1.26       0.33      32.49       9.10      41.59        0.09     0.01   0.874
  sub_90364                 47.58       0.00       1.26       1.22      10.39      33.29      43.68        0.02     0.00   0.918
  sub_90365                 47.58       0.00       1.26       1.63       0.00      44.66      44.66        0.00     0.00   0.939
  sub_90366                 47.58       0.00       1.26       0.55      27.01      15.10      42.11        0.03     0.00   0.885
  sub_90367                 47.58       0.00       1.26       0.93      17.58      25.42      43.00        0.03     0.00   0.904
  sub_90369                 47.58       0.00       1.26       0.66      24.18      18.20      42.38        0.07     0.01   0.891
  sub_90370                 47.58       0.00       1.26       0.45      29.63      12.24      41.86        0.03     0.00   0.880
  sub_90371                 47.58       0.00       1.26       0.23      34.98       6.38      41.36        0.04     0.01   0.869
  sub_90372                 47.58       0.00       1.26       1.03      15.03      28.21      43.24        0.02     0.00   0.909
  sub_90373                 47.58       0.00       1.26       0.07      39.03       1.94      40.97        0.03     0.00   0.861
  sub_90375                 47.58       0.00       1.26       0.33      32.64       8.93      41.58        0.04     0.01   0.874
  sub_90376                 47.58       0.00       1.26       0.58      26.23      15.95      42.18        0.01     0.00   0.886
  sub_90377                 47.58       0.00       1.26       0.34      32.18       9.44      41.62        0.03     0.00   0.875
  sub_90378                 47.58       0.00       1.26       0.46      29.30      12.60      41.89        0.03     0.00   0.880
  sub_90379                 47.58       0.00       1.26       0.77      21.48      21.15      42.63        0.05     0.01   0.896
  sub_90380                 47.58       0.00       1.26       0.70      23.23      19.24      42.47        0.06     0.01   0.892
  sub_90381                 47.58       0.00       1.26       0.71      23.02      19.47      42.49        0.03     0.00   0.893
  sub_90382                 47.58       0.00       1.26       0.59      26.05      16.15      42.20        0.04     0.01   0.887
  sub_90383                 47.58       0.00       1.26       0.50      28.21      13.78      42.00        0.03     0.01   0.883
  sub_90384                 47.58       0.00       1.26       0.96      16.69      26.39      43.08        0.02     0.00   0.905
  sub_90385                 47.58       0.00       1.26       0.43      30.13      11.68      41.81        0.03     0.00   0.879
  sub_90386                 47.58       0.00       1.26       0.78      21.29      21.36      42.65        0.05     0.01   0.896
  sub_90387                 47.58       0.00       1.26       0.61      25.57      16.67      42.24        0.03     0.00   0.888
  sub_90388                 47.58       0.00       1.26       0.60      25.73      16.51      42.23        0.02     0.00   0.887
  sub_90389                 47.58       0.00       1.26       0.67      24.08      18.30      42.39        0.03     0.00   0.891
  sub_90390                 47.58       0.00       1.26       0.84      19.78      23.01      42.79        0.01     0.00   0.899
  sub_90391                 47.58       0.00       1.26       1.63       0.00      44.66      44.66        0.02     0.00   0.939
  sub_90392                 47.58       0.00       1.26       1.04      14.71      28.56      43.27        0.04     0.01   0.909
  sub_90393                 47.58       0.00       1.26       1.03      15.05      28.19      43.24        0.06     0.01   0.909
  sub_90394                 47.58       0.00       1.26       0.98      16.32      26.80      43.12        0.02     0.00   0.906
  sub_90395                 47.58       0.00       1.26       0.38      31.33      10.37      41.70        0.02     0.00   0.876
  sub_90396                 47.58       0.00       1.26       0.00      40.81       0.00      40.81        0.01     0.00   0.858
  sub_90397                 47.58       0.00       1.26       0.88      18.78      24.10      42.89        0.03     0.00   0.901
  sub_90398                 47.58       0.00       1.26       0.92      17.82      25.16      42.98        0.03     0.00   0.903
  sub_90399                 47.58       0.00       1.26       0.51      27.92      14.10      42.02        0.03     0.00   0.883
  sub_90400                 47.58       0.00       1.26       0.61      25.50      16.75      42.25        0.02     0.00   0.888
  sub_90401                 47.58       0.00       1.26       0.36      31.80       9.86      41.66        0.03     0.00   0.875
  sub_90402                 47.58       0.00       1.26       0.38      31.27      10.44      41.71        0.03     0.00   0.876
  sub_90403                 47.58       0.00       1.26       0.62      25.39      16.87      42.26        0.02     0.00   0.888
  sub_90404                 47.58       0.00       1.26       0.65      24.60      17.74      42.34        0.03     0.00   0.890
  sub_90405                 47.58       0.00       1.26       0.71      23.02      19.47      42.49        0.03     0.00   0.893
  sub_90406                 47.58       0.00       1.26       0.86      19.27      23.57      42.84        0.03     0.00   0.900
  sub_90407                 47.58       0.00       1.26       0.84      19.67      23.13      42.80        0.02     0.00   0.900
  sub_90408                 47.58       0.00       1.26       0.54      27.29      14.79      42.08        0.06     0.01   0.884
  sub_90427                 47.58       0.00       1.26       0.63      24.95      17.35      42.30        0.07     0.01   0.889
  sub_90428                 47.58       0.00       1.26       0.77      21.55      21.08      42.62        0.04     0.01   0.896
  sub_90430                 47.58       0.00       1.26       0.37      31.65      10.03      41.67        0.02     0.00   0.876
  sub_90431                 47.58       0.00       1.26       0.59      26.02      16.18      42.20        0.03     0.00   0.887
  sub_90433                 47.58       0.00       1.26       0.81      20.40      22.33      42.73        0.01     0.00   0.898
  sub_90434                 47.58       0.00       1.26       0.29      33.52       7.97      41.49        0.02     0.00   0.872
  sub_90435                 47.58       0.00       1.26       0.52      27.84      14.19      42.03        0.04     0.01   0.883
  sub_90436                 47.58       0.00       1.26       0.26      34.28       7.15      41.42        0.02     0.00   0.871
  sub_90437                 47.58       0.00       1.26       0.41      30.51      11.27      41.78        0.05     0.01   0.878
  sub_90438                 47.58       0.00       1.26       0.58      26.27      15.91      42.18        0.04     0.01   0.886
  sub_90439                 47.58       0.00       1.26       0.59      26.12      16.08      42.19        0.02     0.00   0.887
  sub_90440                 47.58       0.00       1.26       0.66      24.16      18.22      42.38        0.06     0.01   0.891
  sub_90441                 47.58       0.00       1.26       1.09      13.60      29.77      43.38        0.03     0.00   0.912
  sub_90442                 47.58       0.00       1.26       1.28       8.84      34.99      43.83        0.07     0.01   0.921
  sub_90443                 47.58       0.00       1.26       0.95      16.99      26.07      43.06        0.10     0.01   0.905
  sub_90444                 47.58       0.00       1.26       0.46      29.34      12.55      41.89        0.04     0.01   0.880
  sub_90445                 47.58       0.00       1.26       0.80      20.67      22.04      42.71        0.03     0.00   0.898
  sub_90446                 47.58       0.00       1.26       0.49      28.62      13.34      41.96        0.03     0.00   0.882
  sub_90447                 47.58       0.00       1.26       0.76      21.83      20.76      42.60        0.05     0.01   0.895
  sub_90448                 47.58       0.00       1.26       0.70      23.18      19.29      42.47        0.05     0.01   0.893
  sub_90449                 47.58       0.00       1.26       0.66      24.18      18.20      42.38        0.02     0.00   0.891
  sub_90450                 47.58       0.00       1.26       0.56      26.73      15.40      42.13        0.01     0.00   0.885
  sub_90451                 47.58       0.00       1.26       0.71      22.92      19.57      42.49        0.04     0.01   0.893
  sub_90452                 47.58       0.00       1.26       0.92      17.85      25.12      42.97        0.02     0.00   0.903
  sub_90453                 47.58       0.00       1.26       0.47      29.01      12.91      41.92        0.03     0.01   0.881
  sub_90454                 47.58       0.00       1.26       0.63      24.91      17.39      42.31        0.04     0.01   0.889
  sub_90455                 47.58       0.00       1.26       0.35      32.06       9.57      41.63        0.03     0.01   0.875
  sub_90456                 47.58       0.00       1.26       0.95      17.14      25.90      43.04        0.06     0.01   0.905
  sub_90457                 47.58       0.00       1.26       0.93      17.52      25.48      43.00        0.07     0.01   0.904
  sub_90459                 47.58       0.00       1.26       1.13      12.56      30.92      43.47        0.08     0.01   0.914
  sub_90460                 47.58       0.00       1.26       1.51       2.95      41.43      44.38        0.04     0.01   0.933
  sub_90461                 47.58       0.00       1.26       0.54      27.20      14.89      42.09        0.02     0.00   0.885
  sub_90462                 47.58       0.00       1.26       0.77      21.63      20.98      42.62        0.04     0.01   0.896
  sub_90463                 47.58       0.00       1.26       0.39      30.96      10.78      41.74        0.04     0.01   0.877
  sub_90464                 47.58       0.00       1.26       0.66      24.40      17.95      42.35        0.04     0.01   0.890
  sub_90465                 47.58       0.00       1.26       0.35      32.06       9.57      41.63        0.03     0.01   0.875
  sub_90466                 47.58       0.00       1.26       0.61      25.50      16.75      42.25        0.04     0.01   0.888
  sub_90467                 47.58       0.00       1.26       0.30      33.32       8.20      41.51        0.07     0.01   0.872
  sub_90468                 47.58       0.00       1.26       0.58      26.30      15.87      42.18        0.05     0.01   0.886
  sub_90469                 47.58       0.00       1.26       0.35      32.06       9.57      41.63        0.03     0.01   0.875
  sub_90470                 47.58       0.00       1.26       0.60      25.79      16.43      42.22        0.04     0.01   0.887
  sub_90471                 47.58       0.00       1.26       0.50      28.37      13.61      41.98        0.04     0.01   0.882
  sub_90477                 47.58       0.00       1.26       0.34      32.30       9.30      41.61        0.06     0.01   0.874
  sub_90478                 47.58       0.00       1.26       0.39      30.96      10.78      41.74        0.04     0.01   0.877
  sub_90479                 47.58       0.00       1.26       0.93      17.41      25.61      43.02        0.03     0.00   0.904
  sub_90480                 47.58       0.00       1.26       0.46      29.29      12.61      41.89        0.05     0.01   0.880
  sub_90481                 47.58       0.00       1.26       0.58      26.20      15.98      42.19        0.04     0.01   0.887
  sub_90482                 47.58       0.00       1.26       0.61      25.59      16.65      42.24        0.02     0.00   0.888
  sub_90483                 47.58       0.00       1.26       1.22      10.20      33.50      43.70        0.05     0.01   0.918
  sub_90484                 47.58       0.00       1.26       0.51      28.05      13.96      42.01        0.04     0.01   0.883
  sub_90485                 47.58       0.00       1.26       0.92      17.82      25.16      42.98        0.06     0.01   0.903
  sub_90486                 47.58       0.00       1.26       0.68      23.75      18.66      42.42        0.06     0.01   0.891
  sub_90487                 47.58       0.00       1.26       0.58      26.20      15.98      42.19        0.08     0.01   0.887
  sub_90488                 47.58       0.00       1.26       0.71      22.97      19.52      42.49        0.06     0.01   0.893
  sub_90489                 47.58       0.00       1.26       0.36      31.79       9.87      41.66        0.04     0.01   0.875
  sub_90490                 47.58       0.00       1.26       0.32      32.73       8.83      41.57        0.04     0.01   0.874
  sub_90491                 47.58       0.00       1.26       0.38      31.30      10.41      41.70        0.04     0.01   0.876
  sub_90492                 47.58       0.00       1.26       0.51      28.01      14.00      42.01        0.05     0.01   0.883
  sub_90493                 47.58       0.00       1.26       0.35      32.09       9.53      41.63        0.04     0.01   0.875
  sub_90494                 47.58       0.00       1.26       0.33      32.47       9.12      41.59        0.04     0.01   0.874
  sub_90495                 47.58       0.00       1.26       0.52      27.75      14.29      42.04        0.04     0.01   0.883
  sub_90496                 47.58       0.00       1.26       0.35      32.09       9.53      41.63        0.04     0.01   0.875
  sub_90497                 47.58       0.00       1.26       0.31      32.99       8.55      41.54        0.04     0.01   0.873
  sub_90498                 47.58       0.00       1.26       0.59      26.11      16.09      42.19        0.07     0.01   0.887
  sub_90499                 47.58       0.00       1.26       1.02      15.19      28.04      43.23        0.06     0.01   0.908
  sub_90500                 47.58       0.00       1.26       0.75      22.02      20.56      42.58        0.05     0.01   0.895
  sub_90501                 47.58       0.00       1.26       0.33      32.56       9.02      41.58        0.04     0.01   0.874
  sub_90502                 47.58       0.00       1.26       0.65      24.64      17.69      42.33        0.04     0.01   0.890
  sub_90503                 47.58       0.00       1.26       0.36      31.74       9.92      41.66        0.03     0.00   0.876
  sub_90504                 47.58       0.00       1.26       0.34      32.38       9.22      41.60        0.04     0.01   0.874
  sub_90505                 47.58       0.00       1.26       0.39      30.93      10.81      41.74        0.04     0.01   0.877
  sub_90506                 47.58       0.00       1.26       0.43      30.02      11.81      41.82        0.04     0.01   0.879
  sub_90507                 47.58       0.00       1.26       0.45      29.52      12.35      41.87        0.04     0.01   0.880
  sub_90508                 47.58       0.00       1.26       0.44      29.86      11.98      41.84        0.03     0.01   0.879
  sub_90509                 47.58       0.00       1.26       0.90      18.20      24.74      42.94        0.03     0.00   0.902
  sub_90510                 47.58       0.00       1.26       0.41      30.60      11.17      41.77        0.04     0.01   0.878
  sub_90511                 47.58       0.00       1.26       0.70      23.32      19.14      42.46        0.02     0.00   0.892
  sub_90512                 47.58       0.00       1.26       0.46      29.20      12.70      41.90        0.04     0.01   0.881
  sub_90513                 47.58       0.00       1.26       0.32      32.87       8.69      41.56        0.08     0.01   0.873
  sub_90514                 47.58       0.00       1.26       0.42      30.25      11.55      41.80        0.05     0.01   0.879
  sub_90515                 47.58       0.00       1.26       0.74      22.29      20.26      42.55        0.05     0.01   0.894
  sub_90516                 47.58       0.00       1.26       1.03      14.94      28.31      43.25        0.03     0.00   0.909
  sub_90517                 47.58       0.00       1.26       0.75      22.10      20.47      42.57        0.03     0.00   0.895
  sub_90518                 47.58       0.00       1.26       0.22      35.20       6.13      41.33        0.02     0.00   0.869
  sub_90519                 47.58       0.00       1.26       0.83      20.01      22.76      42.77        0.09     0.01   0.899
  sub_90520                 47.58       0.00       1.26       0.81      20.57      22.15      42.72        0.05     0.01   0.898
  sub_90521                 47.58       0.00       1.26       0.48      28.88      13.05      41.93        0.03     0.00   0.881
  sub_90522                 47.58       0.00       1.26       0.38      31.26      10.45      41.71        0.02     0.00   0.877
  sub_90523                 47.58       0.00       1.26       0.47      28.96      12.97      41.92        0.05     0.01   0.881
  sub_90524                 47.58       0.00       1.26       0.80      20.89      21.80      42.69        0.07     0.01   0.897
  sub_90525                 47.58       0.00       1.26       1.00      15.72      27.45      43.18        0.11     0.02   0.907
  sub_90526                 47.58       0.00       1.26       0.80      20.66      22.05      42.71        0.03     0.01   0.898
  sub_90527                 47.58       0.00       1.26       1.04      14.80      28.46      43.26        0.04     0.01   0.909
  sub_90549                 47.58       0.00       1.26       0.75      21.93      20.66      42.59        0.03     0.00   0.895
  sub_90550                 47.58       0.00       1.26       0.00      40.81       0.00      40.81        0.02     0.00   0.858
  sub_90551                 47.58       0.00       1.26       0.88      18.73      24.16      42.89        0.03     0.00   0.901
  sub_90552                 47.58       0.00       1.26       0.36      31.77       9.89      41.66        0.12     0.02   0.876
  sub_90553                 47.58       0.00       1.26       0.85      19.65      23.16      42.80        0.02     0.00   0.900
  sub_90554                 47.58       0.00       1.26       0.80      20.67      22.04      42.71        0.03     0.00   0.898
  sub_90555                 47.58       0.00       1.26       0.98      16.22      26.90      43.13        0.04     0.01   0.906
  sub_90556                 47.58       0.00       1.26       1.08      13.87      29.48      43.35        0.07     0.01   0.911
  sub_90557                 47.58       0.00       1.26       0.55      26.94      15.18      42.12        0.04     0.01   0.885
  sub_90558                 47.58       0.00       1.26       0.56      26.80      15.33      42.13        0.07     0.01   0.885
  sub_90559                 47.58       0.00       1.26       0.88      18.83      24.05      42.88        0.04     0.01   0.901
  sub_90560                 47.58       0.00       1.26       0.72      22.67      19.85      42.52        0.07     0.01   0.894
  sub_90561                 47.58       0.00       1.26       0.64      24.67      17.66      42.33        0.05     0.01   0.890
  sub_90562                 47.58       0.00       1.26       0.60      25.88      16.34      42.22        0.05     0.01   0.887
  sub_90563                 47.58       0.00       1.26       0.56      26.71      15.43      42.14        0.05     0.01   0.886
  sub_90564                 47.58       0.00       1.26       0.49      28.61      13.35      41.96        0.04     0.01   0.882
  sub_90565                 47.58       0.00       1.26       0.69      23.43      19.01      42.45        0.04     0.01   0.892
  sub_90566                 47.58       0.00       1.26       0.71      22.98      19.51      42.49        0.04     0.01   0.893
  sub_90567                 47.58       0.00       1.26       0.85      19.59      23.22      42.81        0.03     0.00   0.900
  sub_90568                 47.58       0.00       1.26       0.00      40.81       0.00      40.81        0.02     0.00   0.858
  sub_90569                 47.58       0.00       1.26       0.78      21.26      21.39      42.65        0.03     0.00   0.896
  sub_90570                 47.58       0.00       1.26       0.93      17.49      25.52      43.01        0.02     0.00   0.904
  sub_90571                 47.58       0.00       1.26       0.50      28.29      13.70      41.99        0.04     0.01   0.882
  sub_90572                 47.58       0.00       1.26       0.50      28.37      13.61      41.98        0.04     0.01   0.882
  sub_90573                 47.58       0.00       1.26       0.33      32.47       9.12      41.59        0.04     0.01   0.874
  sub_90574                 47.58       0.00       1.26       0.38      31.35      10.35      41.70        0.03     0.01   0.876
  sub_90575                 47.58       0.00       1.26       0.62      25.33      16.94      42.27        0.05     0.01   0.888
  sub_90576                 47.58       0.00       1.26       0.67      23.98      18.41      42.39        0.05     0.01   0.891
  sub_90577                 47.58       0.00       1.26       0.65      24.48      17.86      42.35        0.04     0.01   0.890
  sub_90578                 47.58       0.00       1.26       0.57      26.57      15.58      42.15        0.05     0.01   0.886
  sub_90579                 47.58       0.00       1.26       0.48      28.89      13.04      41.93        0.05     0.01   0.881
  sub_90580                 47.58       0.00       1.26       0.99      16.06      27.08      43.14        0.04     0.01   0.907
  sub_90581                 47.58       0.00       1.26       0.80      20.86      21.83      42.69        0.04     0.01   0.897
  sub_90582                 47.58       0.00       1.26       0.63      25.14      17.14      42.29        0.04     0.01   0.889
  sub_90583                 47.58       0.00       1.26       0.78      21.24      21.42      42.65        0.04     0.01   0.896
  sub_90584                 47.58       0.00       1.26       0.44      29.84      12.01      41.84        0.04     0.01   0.879
  sub_90585                 47.58       0.00       1.26       0.44      29.88      11.96      41.84        0.05     0.01   0.879
  sub_90586                 47.58       0.00       1.26       0.48      28.78      13.16      41.94        0.04     0.01   0.881
  sub_90587                 47.58       0.00       1.26       0.53      27.54      14.51      42.06        0.03     0.01   0.884
  sub_90588                 47.58       0.00       1.26       0.36      31.68       9.99      41.67        0.03     0.00   0.876
  sub_90589                 47.58       0.00       1.26       0.60      25.89      16.33      42.21        0.04     0.01   0.887
  sub_90590                 47.58       0.00       1.26       0.57      26.44      15.72      42.16        0.05     0.01   0.886
  sub_90591                 47.58       0.00       1.26       0.39      31.03      10.70      41.73        0.04     0.01   0.877
  sub_90592                 47.58       0.00       1.26       0.38      31.33      10.38      41.70        0.04     0.01   0.876
  sub_90593                 47.58       0.00       1.26       0.51      27.97      14.05      42.02        0.04     0.01   0.883
  sub_90594                 47.58       0.00       1.26       0.63      24.97      17.33      42.30        0.06     0.01   0.889
  sub_90595                 47.58       0.00       1.26       0.64      24.82      17.50      42.32        0.04     0.01   0.889
  sub_90596                 47.58       0.00       1.26       0.36      31.74       9.92      41.66        0.03     0.01   0.876
  sub_90597                 47.58       0.00       1.26       0.85      19.54      23.27      42.81        0.03     0.00   0.900
  sub_90598                 47.58       0.00       1.26       0.84      19.70      23.10      42.80        0.02     0.00   0.899
  sub_90599                 47.58       0.00       1.26       0.62      25.30      16.97      42.27        0.02     0.00   0.888
  sub_90600                 47.58       0.00       1.26       0.56      26.71      15.43      42.14        0.02     0.00   0.886
  sub_90601                 47.58       0.00       1.26       0.94      17.28      25.75      43.03        0.04     0.01   0.904
  sub_90602                 47.58       0.00       1.26       0.70      23.32      19.14      42.46        0.04     0.01   0.892
  sub_90603                 47.58       0.00       1.26       0.89      18.60      24.31      42.90        0.03     0.01   0.902
  sub_90604                 47.58       0.00       1.26       0.59      25.97      16.24      42.21        0.04     0.01   0.887
  sub_90605                 47.58       0.00       1.26       0.58      26.20      15.99      42.19        0.07     0.01   0.887
  sub_90606                 47.58       0.00       1.26       0.66      24.39      17.97      42.36        0.04     0.01   0.890
  sub_90607                 47.58       0.00       1.26       0.68      23.75      18.66      42.42        0.03     0.00   0.891
  sub_90608                 47.58       0.00       1.26       0.82      20.40      22.33      42.73        0.04     0.01   0.898
  sub_90609                 47.58       0.00       1.26       0.96      16.84      26.23      43.07        0.03     0.00   0.905
  sub_90610                 47.58       0.00       1.26       0.93      17.57      25.43      43.00        0.03     0.00   0.904
  sub_90611                 47.58       0.00       1.26       0.83      20.03      22.74      42.77        0.02     0.00   0.899
  sub_90612                 47.58       0.00       1.26       0.94      17.34      25.68      43.02        0.03     0.01   0.904
  sub_90613                 47.58       0.00       1.26       1.00      15.80      27.37      43.17        0.05     0.01   0.907
  sub_90615                 47.58       0.00       1.26       0.85      19.52      23.30      42.82        0.07     0.01   0.900
  sub_90616                 47.58       0.00       1.26       0.44      29.91      11.93      41.84        0.07     0.01   0.879
  sub_90617                 47.58       0.00       1.26       0.56      26.69      15.45      42.14        0.06     0.01   0.886
  sub_90618                 47.58       0.00       1.26       0.36      31.72       9.95      41.66        0.08     0.01   0.876
  sub_90619                 47.58       0.00       1.26       0.06      39.35       1.59      40.94        0.02     0.00   0.860
  sub_90620                 47.58       0.00       1.26       0.38      31.24      10.47      41.71        0.03     0.00   0.877
  sub_90621                 47.58       0.00       1.26       0.81      20.59      22.12      42.71        0.09     0.01   0.898
  sub_90623                 47.58       0.00       1.26       0.69      23.51      18.93      42.44        0.08     0.01   0.892
  sub_90624                 47.58       0.00       1.26       0.67      24.11      18.27      42.38        0.02     0.00   0.891
  sub_90625                 47.58       0.00       1.26       0.57      26.57      15.58      42.15        0.04     0.01   0.886
  sub_90626                 47.58       0.00       1.26       0.51      28.12      13.88      42.00        0.03     0.00   0.883
  sub_90627                 47.58       0.00       1.26       0.90      18.31      24.62      42.93        0.05     0.01   0.902
  sub_90628                 47.58       0.00       1.26       0.74      22.38      20.16      42.55        0.09     0.01   0.894
  sub_90629                 47.58       0.00       1.26       0.85      19.42      23.41      42.83        0.06     0.01   0.900
  sub_90630                 47.58       0.00       1.26       0.36      31.79       9.87      41.66        0.04     0.01   0.875
  sub_90631                 47.58       0.00       1.26       0.56      26.70      15.44      42.14        0.03     0.01   0.886
  sub_90632                 47.58       0.00       1.26       0.58      26.20      15.99      42.19        0.03     0.01   0.887
  sub_90633                 47.58       0.00       1.26       0.36      31.84       9.82      41.65        0.04     0.01   0.875
  sub_90634                 47.58       0.00       1.26       0.54      27.20      14.89      42.09        0.03     0.00   0.885
  sub_90635                 47.58       0.00       1.26       0.80      20.89      21.80      42.69        0.04     0.01   0.897
  sub_90636                 47.58       0.00       1.26       0.60      25.73      16.51      42.23        0.04     0.01   0.887
  sub_90637                 47.58       0.00       1.26       0.56      26.83      15.30      42.13        0.05     0.01   0.885
  sub_90638                 47.58       0.00       1.26       0.33      32.64       8.93      41.58        0.06     0.01   0.874
  sub_90639                 47.58       0.00       1.26       0.85      19.48      23.34      42.82        0.05     0.01   0.900
  sub_90640                 47.58       0.00       1.26       0.43      30.10      11.71      41.82        0.05     0.01   0.879
  sub_90641                 47.58       0.00       1.26       0.53      27.63      14.42      42.05        0.05     0.01   0.884
  sub_90642                 47.58       0.00       1.26       0.66      24.18      18.20      42.38        0.03     0.01   0.891
  sub_90643                 47.58       0.00       1.26       0.43      30.15      11.66      41.81        0.08     0.01   0.879
  sub_90644                 47.58       0.00       1.26       0.37      31.59      10.08      41.68        0.04     0.01   0.876
  sub_90645                 47.58       0.00       1.26       0.52      27.75      14.29      42.04        0.02     0.00   0.883
  sub_90646                 47.58       0.00       1.26       0.98      16.32      26.80      43.12        0.04     0.01   0.906
  sub_90647                 47.58       0.00       1.26       1.35       7.13      36.86      43.99        0.05     0.01   0.924
  sub_90648                 47.58       0.00       1.26       0.35      31.93       9.71      41.64        0.03     0.00   0.875
  sub_90649                 47.58       0.00       1.26       0.52      27.73      14.31      42.04        0.04     0.01   0.884
  sub_90650                 47.58       0.00       1.26       0.51      27.94      14.08      42.02        0.09     0.01   0.883
  sub_90651                 47.58       0.00       1.26       0.42      30.21      11.59      41.81        0.04     0.01   0.879
  sub_90652                 47.58       0.00       1.26       0.54      27.39      14.68      42.07        0.03     0.00   0.884
  sub_90653                 47.58       0.00       1.26       0.65      24.48      17.86      42.35        0.03     0.00   0.890
  sub_90654                 47.58       0.00       1.26       0.75      22.10      20.47      42.57        0.01     0.00   0.895
  sub_90655                 47.58       0.00       1.26       0.48      28.69      13.27      41.95        0.04     0.01   0.882
  sub_90656                 47.58       0.00       1.26       0.86      19.27      23.57      42.84        0.05     0.01   0.900
  sub_90657                 47.58       0.00       1.26       0.90      18.17      24.77      42.94        0.05     0.01   0.902
  sub_90658                 47.58       0.00       1.26       0.52      27.88      14.14      42.03        0.05     0.01   0.883
  sub_90659                 47.58       0.00       1.26       1.18      11.26      32.34      43.60        0.03     0.00   0.916
  sub_90662                 47.58       0.00       1.26       0.60      25.69      16.54      42.23        0.01     0.00   0.888
  sub_90663                 47.58       0.00       1.26       0.82      20.16      22.59      42.76        0.11     0.02   0.899
  sub_90664                 47.58       0.00       1.26       1.63       0.00      44.66      44.66        0.01     0.00   0.939
  sub_90665                 47.58       0.00       1.26       0.76      21.73      20.87      42.61        0.04     0.01   0.895
  sub_90669                 47.58       0.00       1.26       0.62      25.37      16.90      42.26        0.02     0.00   0.888
  sub_90670                 47.58       0.00       1.26       0.45      29.51      12.37      41.87        0.03     0.00   0.880
  sub_90671                 47.58       0.00       1.26       0.50      28.39      13.59      41.98        0.01     0.00   0.882
  sub_90672                 47.58       0.00       1.26       0.66      24.30      18.06      42.36        0.04     0.01   0.890
  sub_90673                 47.58       0.00       1.26       0.84      19.77      23.02      42.79        0.04     0.01   0.899
  sub_90674                 47.58       0.00       1.26       0.24      34.72       6.67      41.38        0.06     0.01   0.870
  sub_90675                 47.58       0.00       1.26       0.37      31.52      10.16      41.68        0.06     0.01   0.876
  sub_90676                 47.58       0.00       1.26       0.55      27.09      15.01      42.10        0.05     0.01   0.885
  sub_90677                 47.58       0.00       1.26       0.80      20.76      21.94      42.70        0.02     0.00   0.897
  sub_90678                 47.58       0.00       1.26       0.72      22.85      19.65      42.50        0.03     0.00   0.893
  sub_90679                 47.58       0.00       1.26       0.79      21.06      21.61      42.67        0.07     0.01   0.897
  sub_90680                 47.58       0.00       1.26       0.45      29.47      12.41      41.88        0.06     0.01   0.880
  sub_90681                 47.58       0.00       1.26       0.80      20.74      21.96      42.70        0.03     0.00   0.897
  sub_90682                 47.58       0.00       1.26       0.72      22.77      19.74      42.51        0.04     0.01   0.893
  sub_90683                 47.58       0.00       1.26       1.19      11.01      32.61      43.62        0.03     0.00   0.917
  sub_90684                 47.58       0.00       1.26       0.27      34.16       7.27      41.43        0.02     0.00   0.871
  sub_90685                 47.58       0.00       1.26       0.19      35.95       5.32      41.26        0.02     0.00   0.867
  sub_90686                 47.58       0.00       1.26       0.72      22.85      19.65      42.50        0.02     0.00   0.893
  sub_90688                 47.58       0.00       1.26       0.54      27.20      14.89      42.09        0.03     0.00   0.885
  sub_90689                 47.58       0.00       1.26       0.87      19.04      23.82      42.86        0.02     0.00   0.901
  sub_90690                 47.58       0.00       1.26       0.68      23.74      18.68      42.42        0.02     0.00   0.891
  sub_90691                 47.58       0.00       1.26       0.59      26.14      16.05      42.19        0.03     0.00   0.887
  sub_90692                 47.58       0.00       1.26       0.51      28.11      13.89      42.00        0.02     0.00   0.883
  sub_90693                 47.58       0.00       1.26       0.96      16.80      26.27      43.07        0.01     0.00   0.905
  sub_90694                 47.58       0.00       1.26       1.31       7.90      36.02      43.91        0.01     0.00   0.923
  sub_90695                 47.58       0.00       1.26       0.73      22.44      20.10      42.54        0.02     0.00   0.894
  sub_90696                 47.58       0.00       1.26       0.81      20.40      22.33      42.73        0.02     0.00   0.898
  sub_90697                 47.58       0.00       1.26       0.84      19.82      22.97      42.79        0.01     0.00   0.899
  sub_90698                 47.58       0.00       1.26       0.95      17.11      25.93      43.04        0.01     0.00   0.905
  sub_90699                 47.58       0.00       1.26       1.12      12.66      30.80      43.46        0.01     0.00   0.913
  sub_90700                 47.58       0.00       1.26       0.31      33.03       8.51      41.54        0.01     0.00   0.873
  sub_90701                 47.58       0.00       1.26       0.29      33.60       7.88      41.49        0.01     0.00   0.872
  sub_90702                 47.58       0.00       1.26       0.33      32.64       8.93      41.58        0.01     0.00   0.874
  sub_90703                 47.58       0.00       1.26       0.84      19.85      22.93      42.78        0.03     0.00   0.899
  sub_90704                 47.58       0.00       1.26       0.81      20.64      22.07      42.71        0.04     0.01   0.898
  sub_90705                 47.58       0.00       1.26       0.87      19.00      23.86      42.87        0.06     0.01   0.901
  sub_90706                 47.58       0.00       1.26       0.60      25.88      16.34      42.22        0.02     0.00   0.887
  sub_90707                 47.58       0.00       1.26       0.40      30.85      10.89      41.75        0.02     0.00   0.877
  sub_90708                 47.58       0.00       1.26       0.97      16.56      26.54      43.10        0.06     0.01   0.906
  sub_90709                 47.58       0.00       1.26       0.72      22.85      19.65      42.50        0.04     0.01   0.893
  sub_90710                 47.58       0.00       1.26       0.94      17.38      25.64      43.02        0.07     0.01   0.904
  sub_90724                 47.58       0.00       1.26       0.98      16.32      26.80      43.12        0.02     0.00   0.906
  sub_90725                 47.58       0.00       1.26       1.63       0.00      44.66      44.66        0.01     0.00   0.939
  sub_90726                 47.58       0.00       1.26       1.63       0.00      44.66      44.66        0.00     0.00   0.939
  sub_90727                 47.58       0.00       1.26       1.63       0.00      44.66      44.66        0.01     0.00   0.939
  sub_90728                 47.58       0.00       1.26       1.63       0.00      44.66      44.66        0.02     0.00   0.939
  sub_90729                 47.58       0.00       1.26       1.63       0.00      44.66      44.66        0.01     0.00   0.939
  sub_90730                 47.58       0.00       1.26       1.63       0.00      44.66      44.66        0.02     0.00   0.939
  sub_90731                 47.58       0.00       1.26       1.63       0.00      44.66      44.66        0.03     0.00   0.939
  sub_90732                 47.58       0.00       1.26       1.63       0.00      44.66      44.66        0.00     0.00   0.939
  sub_90733                 47.58       0.00       1.26       0.48      28.80      13.14      41.94        0.02     0.00   0.881
  
  
  ******************
  Node Depth Summary
  ******************
  
  ---------------------------------------------------------------------------------
                                 Average  Maximum  Maximum  Time of Max    Reported
                                   Depth    Depth      HGL   Occurrence   Max Depth
  Node                 Type       Meters   Meters   Meters  days hr:min      Meters
  ---------------------------------------------------------------------------------
  j_9006F              JUNCTION     0.02     0.28    -0.08     0  20:00        0.28
  j_90334              JUNCTION     0.01     0.11    -0.10     0  19:55        0.11
  j_90335              JUNCTION     0.02     0.24    -0.17     0  19:55        0.24
  j_90336              JUNCTION     0.02     0.20     0.03     0  19:55        0.20
  j_90363              JUNCTION     0.05     0.22    -0.13     0  19:55        0.22
  j_90364              JUNCTION     0.05     0.22    -0.13     0  19:54        0.22
  j_90365              JUNCTION     0.05     0.22    -0.13     0  19:54        0.22
  j_90366              JUNCTION     0.01     0.15    -0.16     0  19:55        0.15
  j_90367              JUNCTION     0.03     0.33    -0.16     0  19:55        0.33
  j_90368              JUNCTION     0.00     0.13    -0.16     0  19:55        0.13
  j_90369              JUNCTION     0.01     0.13    -0.17     0  19:55        0.13
  j_90370              JUNCTION     0.04     0.34    -0.17     0  19:55        0.34
  j_90371              JUNCTION     0.05     0.38    -0.18     0  19:55        0.38
  j_90372              JUNCTION     0.00     0.07    -0.18     0  19:55        0.07
  j_90373              JUNCTION     0.02     0.29    -0.18     0  19:55        0.29
  j_90374              JUNCTION     0.00     0.11    -0.17     0  19:56        0.10
  j_90375              JUNCTION     0.01     0.16    -0.18     0  19:56        0.16
  j_90376              JUNCTION     0.01     0.06    -0.09     0  19:55        0.06
  j_90377              JUNCTION     0.01     0.06    -0.11     0  19:55        0.06
  j_90378              JUNCTION     0.02     0.15    -0.25     0  19:55        0.15
  j_90379              JUNCTION     0.01     0.09    -0.16     0  19:55        0.09
  j_90380              JUNCTION     0.01     0.11    -0.22     0  19:55        0.11
  j_90381              JUNCTION     0.04     0.18    -0.27     0  19:55        0.18
  j_90382              JUNCTION     0.06     0.55    -0.37     0  19:56        0.54
  j_90383              JUNCTION     0.06     0.50    -0.32     0  19:56        0.49
  j_90384              JUNCTION     0.05     0.22    -0.24     0  19:55        0.22
  j_90385              JUNCTION     0.01     0.12    -0.25     0  19:55        0.12
  j_90386              JUNCTION     0.01     0.10    -0.13     0  19:55        0.10
  j_90387              JUNCTION     0.01     0.07    -0.13     0  19:55        0.07
  j_90388              JUNCTION     0.04     0.19    -0.20     0  19:55        0.19
  j_90389              JUNCTION     0.06     0.37    -0.24     0  19:55        0.36
  j_90390              JUNCTION     0.04     0.36    -0.21     0  19:55        0.36
  j_90391              JUNCTION     0.03     0.23    -0.01     0  19:55        0.23
  j_90392              JUNCTION     0.04     0.25     0.00     0  19:55        0.25
  j_90393              JUNCTION     0.02     0.21     0.02     0  19:55        0.21
  j_90394              JUNCTION     0.01     0.14     0.04     0  19:55        0.14
  j_90395              JUNCTION     0.01     0.13     0.05     0  19:55        0.13
  j_90396              JUNCTION     0.00     0.07     0.05     0  19:55        0.07
  j_90397              JUNCTION     0.06     0.49    -0.28     0  19:56        0.48
  j_90398              JUNCTION     0.02     0.34    -0.28     0  19:56        0.34
  j_90399              JUNCTION     0.01     0.09    -0.22     0  19:51        0.09
  j_90400              JUNCTION     0.01     0.05    -0.21     0  19:53        0.05
  j_90401              JUNCTION     0.01     0.09    -0.22     0  19:55        0.09
  j_90402              JUNCTION     0.01     0.10    -0.26     0  19:55        0.10
  j_90403              JUNCTION     0.00     0.05    -0.20     0  19:52        0.05
  j_90404              JUNCTION     0.01     0.09    -0.21     0  19:51        0.09
  j_90405              JUNCTION     0.02     0.28    -0.28     0  19:56        0.28
  j_90406              JUNCTION     0.02     0.23    -0.27     0  19:55        0.22
  j_90407              JUNCTION     0.01     0.14    -0.27     0  19:55        0.13
  j_90408              JUNCTION     0.01     0.11    -0.21     0  19:55        0.11
  j_90427              JUNCTION     0.03     0.36    -0.07     0  19:55        0.36
  j_90428              JUNCTION     0.02     0.30    -0.07     0  19:55        0.30
  j_90430              JUNCTION     0.02     0.15    -1.42     0  19:57        0.15
  j_90433              JUNCTION     0.02     0.16    -0.21     0  19:55        0.16
  j_90434              JUNCTION     0.06     0.22    -0.21     0  19:55        0.22
  j_90435              JUNCTION     0.02     0.13    -0.24     0  19:55        0.13
  j_90436              JUNCTION     0.02     0.21    -0.25     0  19:55        0.21
  j_90437              JUNCTION     0.08     0.63    -0.73     0  19:57        0.62
  j_90438              JUNCTION     0.11     0.73    -0.62     0  19:57        0.72
  j_90439              JUNCTION     0.01     0.09    -0.12     0  19:55        0.09
  j_90440              JUNCTION     0.01     0.09    -0.07     0  19:55        0.09
  j_90441              JUNCTION     0.01     0.06    -0.07     0  19:53        0.06
  j_90442              JUNCTION     0.08     0.49    -0.15     0  19:55        0.49
  j_90443              JUNCTION     0.11     0.76    -0.54     0  19:57        0.75
  j_90444              JUNCTION     0.06     0.61    -0.50     0  19:57        0.60
  j_90445              JUNCTION     0.02     0.15    -0.28     0  19:55        0.15
  j_90446              JUNCTION     0.01     0.13    -0.23     0  19:55        0.13
  j_90447              JUNCTION     0.01     0.10    -0.15     0  19:55        0.10
  j_90448              JUNCTION     0.01     0.09    -0.18     0  19:55        0.09
  j_90449              JUNCTION     0.03     0.14    -0.34     0  19:55        0.14
  j_90450              JUNCTION     0.02     0.11    -0.36     0  19:55        0.11
  j_90451              JUNCTION     0.06     0.56    -0.46     0  19:57        0.55
  j_90452              JUNCTION     0.01     0.12    -0.30     0  19:55        0.12
  j_90453              JUNCTION     0.06     0.55    -0.41     0  19:56        0.54
  j_90454              JUNCTION     0.01     0.15    -0.32     0  19:55        0.15
  j_90455              JUNCTION     0.03     0.17    -0.37     0  19:55        0.17
  j_90456              JUNCTION     0.03     0.27    -0.39     0  19:55        0.27
  j_90457              JUNCTION     0.05     0.32    -0.44     0  19:55        0.32
  j_90459              JUNCTION     0.05     0.53    -0.52     0  19:57        0.52
  j_90460              JUNCTION     0.03     0.46    -0.50     0  19:57        0.45
  j_90461              JUNCTION     0.08     0.58    -0.50     0  19:57        0.57
  j_90462              JUNCTION     0.05     0.52    -0.46     0  19:57        0.51
  j_90463              JUNCTION     0.03     0.32    -0.41     0  19:57        0.31
  j_90464              JUNCTION     0.02     0.23    -0.40     0  19:56        0.22
  j_90465              JUNCTION     0.02     0.17    -0.37     0  19:55        0.17
  j_90466              JUNCTION     0.01     0.14    -0.30     0  19:55        0.14
  j_90467              JUNCTION     0.02     0.18    -0.24     0  19:55        0.18
  j_90468              JUNCTION     0.03     0.25    -0.27     0  19:55        0.25
  j_90469              JUNCTION     0.02     0.24    -0.32     0  19:55        0.24
  j_90470              JUNCTION     0.03     0.32    -0.35     0  19:56        0.32
  j_90471              JUNCTION     0.03     0.33    -0.37     0  19:56        0.33
  j_90477              JUNCTION     0.01     0.21    -0.10     0  19:59        0.21
  j_90478              JUNCTION     0.02     0.32    -0.09     0  19:57        0.31
  j_90479              JUNCTION     0.01     0.22    -0.10     0  19:57        0.22
  j_90480              JUNCTION     0.01     0.16    -0.09     0  19:59        0.16
  j_90481              JUNCTION     0.03     0.31    -0.09     0  19:56        0.31
  j_90482              JUNCTION     0.03     0.36    -0.09     0  19:57        0.36
  j_90483              JUNCTION     0.02     0.20    -0.08     0  19:56        0.19
  j_90484              JUNCTION     0.01     0.13    -0.07     0  19:55        0.12
  j_90485              JUNCTION     0.02     0.26    -0.07     0  19:55        0.26
  j_90486              JUNCTION     0.05     0.39    -0.07     0  19:55        0.39
  j_90487              JUNCTION     0.04     0.43    -0.09     0  19:55        0.43
  j_90488              JUNCTION     0.07     0.48    -0.12     0  19:55        0.48
  j_90489              JUNCTION     0.01     0.13    -0.10     0  20:00        0.13
  j_90490              JUNCTION     0.01     0.22    -0.09     0  19:59        0.22
  j_90491              JUNCTION     0.05     0.45    -0.09     0  20:00        0.45
  j_90492              JUNCTION     0.06     0.53    -0.09     0  20:00        0.53
  j_90493              JUNCTION     0.01     0.22    -0.10     0  20:00        0.22
  j_90494              JUNCTION     0.08     0.63    -0.11     0  20:00        0.63
  j_90495              JUNCTION     0.08     0.62    -0.09     0  19:59        0.62
  j_90496              JUNCTION     0.02     0.23    -0.09     0  19:59        0.23
  j_90497              JUNCTION     0.01     0.08    -0.10     0  19:59        0.08
  j_90498              JUNCTION     0.03     0.37    -0.11     0  19:55        0.36
  j_90499              JUNCTION     0.04     0.36    -0.11     0  19:55        0.36
  j_90500              JUNCTION     0.02     0.28    -0.10     0  19:55        0.27
  j_90501              JUNCTION     0.02     0.18    -0.09     0  19:57        0.18
  j_90502              JUNCTION     0.01     0.15    -0.08     0  19:57        0.14
  j_90503              JUNCTION     0.01     0.15    -0.08     0  19:56        0.14
  j_90504              JUNCTION     0.04     0.20    -0.08     0  19:56        0.20
  j_90505              JUNCTION     0.04     0.41    -0.09     0  19:59        0.41
  j_90506              JUNCTION     0.05     0.43    -0.08     0  19:59        0.42
  j_90507              JUNCTION     0.02     0.29    -0.08     0  19:56        0.29
  j_90508              JUNCTION     0.03     0.37    -0.08     0  20:00        0.37
  j_90509              JUNCTION     0.01     0.16    -0.09     0  20:00        0.16
  j_90510              JUNCTION     0.01     0.27    -0.04     0  19:56        0.26
  j_90511              JUNCTION     0.08     0.55    -0.04     0  19:55        0.54
  j_90512              JUNCTION     0.06     0.50    -0.04     0  19:55        0.50
  j_90513              JUNCTION     0.01     0.20    -0.06     0  19:55        0.20
  j_90514              JUNCTION     0.01     0.22    -0.10     0  19:56        0.21
  j_90515              JUNCTION     0.04     0.27    -0.14     0  19:55        0.27
  j_90516              JUNCTION     0.06     0.23    -0.21     0  19:55        0.23
  j_90517              JUNCTION     0.05     0.50    -0.42     0  19:57        0.49
  j_90518              JUNCTION     0.06     0.48    -0.40     0  19:56        0.47
  j_90519              JUNCTION     0.04     0.45    -0.38     0  19:56        0.44
  j_90520              JUNCTION     0.03     0.22    -0.13     0  19:55        0.22
  j_90521              JUNCTION     0.01     0.12    -0.12     0  19:55        0.12
  j_90522              JUNCTION     0.03     0.15    -0.12     0  19:55        0.15
  j_90523              JUNCTION     0.01     0.13    -0.07     0  19:55        0.13
  j_90524              JUNCTION     0.03     0.43    -0.02     0  19:55        0.42
  j_90525              JUNCTION     0.02     0.33    -0.02     0  19:55        0.33
  j_90526              JUNCTION     0.02     0.25    -0.01     0  19:55        0.24
  j_90527              JUNCTION     0.01     0.17    -0.01     0  19:55        0.16
  j_90549              JUNCTION     0.02     0.16    -0.25     0  19:55        0.16
  j_90550              JUNCTION     0.14     0.72    -0.51     0  20:01        0.71
  j_90551              JUNCTION     0.01     0.06     0.11     0  19:51        0.06
  j_90553              JUNCTION     0.05     0.28    -0.10     0  20:00        0.28
  j_90554              JUNCTION     0.02     0.24    -0.10     0  20:00        0.24
  j_90555              JUNCTION     0.01     0.14    -0.10     0  20:00        0.14
  j_90556              JUNCTION     0.04     0.27    -0.10     0  20:00        0.27
  j_90557              JUNCTION     0.05     0.28    -0.10     0  20:00        0.28
  j_90558              JUNCTION     0.08     0.60    -0.11     0  20:00        0.60
  j_90559              JUNCTION     0.04     0.48    -0.10     0  19:59        0.48
  j_90560              JUNCTION     0.04     0.46    -0.10     0  20:00        0.46
  j_90561              JUNCTION     0.02     0.28    -0.10     0  19:57        0.28
  j_90562              JUNCTION     0.04     0.35    -0.10     0  20:00        0.35
  j_90563              JUNCTION     0.07     0.58    -0.12     0  20:00        0.58
  j_90564              JUNCTION     0.09     0.69    -0.12     0  20:00        0.69
  j_90565              JUNCTION     0.01     0.22    -0.12     0  19:59        0.22
  j_90566              JUNCTION     0.01     0.08    -0.12     0  20:00        0.08
  j_90567              JUNCTION     0.01     0.07     0.10     0  19:51        0.07
  j_90568              JUNCTION     0.12     0.73    -0.38     0  20:01        0.73
  j_90569              JUNCTION     0.05     0.20    -0.12     0  20:00        0.19
  j_90570              JUNCTION     0.01     0.06    -0.02     0  19:55        0.06
  j_90571              JUNCTION     0.02     0.30    -0.13     0  20:00        0.30
  j_90572              JUNCTION     0.11     0.73    -0.13     0  20:00        0.73
  j_90573              JUNCTION     0.01     0.21    -0.13     0  20:00        0.21
  j_90574              JUNCTION     0.09     0.67    -0.13     0  20:00        0.67
  j_90575              JUNCTION     0.14     0.76    -0.15     0  20:00        0.76
  j_90576              JUNCTION     0.11     0.72    -0.20     0  20:00        0.72
  j_90577              JUNCTION     0.11     0.74    -0.24     0  20:00        0.74
  j_90578              JUNCTION     0.10     0.71    -0.24     0  20:00        0.71
  j_90579              JUNCTION     0.08     0.64    -0.24     0  20:00        0.64
  j_90580              JUNCTION     0.01     0.08    -0.05     0  19:55        0.08
  j_90581              JUNCTION     0.01     0.13    -0.11     0  20:00        0.13
  j_90582              JUNCTION     0.01     0.12    -0.12     0  20:00        0.12
  j_90583              JUNCTION     0.01     0.18    -0.13     0  20:00        0.18
  j_90584              JUNCTION     0.02     0.23    -0.12     0  20:00        0.23
  j_90585              JUNCTION     0.09     0.70    -0.13     0  20:00        0.70
  j_90586              JUNCTION     0.10     0.70    -0.12     0  20:00        0.70
  j_90587              JUNCTION     0.09     0.68    -0.11     0  20:00        0.68
  j_90588              JUNCTION     0.01     0.25    -0.11     0  20:00        0.25
  j_90589              JUNCTION     0.01     0.18    -0.10     0  20:00        0.18
  j_90590              JUNCTION     0.01     0.17    -0.08     0  20:00        0.17
  j_90591              JUNCTION     0.06     0.56    -0.05     0  19:56        0.55
  j_90592              JUNCTION     0.08     0.59    -0.08     0  19:56        0.59
  j_90593              JUNCTION     0.10     0.69    -0.10     0  20:00        0.69
  j_90594              JUNCTION     0.07     0.60    -0.10     0  20:00        0.60
  j_90595              JUNCTION     0.02     0.24    -0.10     0  20:00        0.24
  j_90596              JUNCTION     0.01     0.22    -0.10     0  20:00        0.22
  j_90597              JUNCTION     0.02     0.19    -0.09     0  20:00        0.19
  j_90598              JUNCTION     0.01     0.15    -0.10     0  20:00        0.15
  j_90599              JUNCTION     0.03     0.20    -0.09     0  20:00        0.20
  j_90600              JUNCTION     0.01     0.13    -0.09     0  20:00        0.13
  j_90601              JUNCTION     0.01     0.10    -0.07     0  19:55        0.10
  j_90602              JUNCTION     0.02     0.19    -0.08     0  20:00        0.19
  j_90603              JUNCTION     0.01     0.21    -0.08     0  20:00        0.21
  j_90604              JUNCTION     0.02     0.27    -0.09     0  20:00        0.27
  j_90605              JUNCTION     0.04     0.37    -0.09     0  20:00        0.37
  j_90606              JUNCTION     0.05     0.35    -0.08     0  20:00        0.35
  j_90607              JUNCTION     0.03     0.30    -0.08     0  20:00        0.30
  j_90608              JUNCTION     0.02     0.26    -0.08     0  20:00        0.26
  j_90609              JUNCTION     0.01     0.09    -0.08     0  20:00        0.09
  j_90610              JUNCTION     0.01     0.14    -0.08     0  20:00        0.14
  j_90611              JUNCTION     0.02     0.19    -0.08     0  20:00        0.19
  j_90612              JUNCTION     0.01     0.14    -0.07     0  20:00        0.14
  j_90613              JUNCTION     0.01     0.08    -0.02     0  19:55        0.08
  j_90615              JUNCTION     0.01     0.11    -0.18     0  19:55        0.11
  j_90616              JUNCTION     0.01     0.15    -0.17     0  19:55        0.15
  j_90617              JUNCTION     0.01     0.08    -0.15     0  19:55        0.08
  j_90618              JUNCTION     0.02     0.17    -0.20     0  19:53        0.16
  j_90619              JUNCTION     0.12     0.75    -0.25     0  20:00        0.74
  j_90620              JUNCTION     0.16     0.80    -0.25     0  20:00        0.80
  j_90621              JUNCTION     0.11     0.74    -0.24     0  20:00        0.74
  j_90623              JUNCTION     0.09     0.68    -0.22     0  20:00        0.68
  j_90624              JUNCTION     0.05     0.57    -0.22     0  20:01        0.57
  j_90625              JUNCTION     0.04     0.51    -0.19     0  20:00        0.50
  j_90626              JUNCTION     0.07     0.61    -0.21     0  20:00        0.61
  j_90627              JUNCTION     0.10     0.67    -0.21     0  20:00        0.67
  j_90628              JUNCTION     0.02     0.21    -0.20     0  20:00        0.21
  j_90629              JUNCTION     0.01     0.15    -0.20     0  20:00        0.15
  j_90630              JUNCTION     0.01     0.12    -0.07     0  19:55        0.12
  j_90631              JUNCTION     0.02     0.24    -0.18     0  20:00        0.23
  j_90632              JUNCTION     0.02     0.26    -0.19     0  20:00        0.26
  j_90633              JUNCTION     0.02     0.29    -0.19     0  20:00        0.29
  j_90634              JUNCTION     0.13     0.69    -0.19     0  20:00        0.69
  j_90635              JUNCTION     0.05     0.51    -0.19     0  20:00        0.51
  j_90636              JUNCTION     0.04     0.38    -0.19     0  20:00        0.38
  j_90637              JUNCTION     0.06     0.53    -0.18     0  20:01        0.53
  j_90638              JUNCTION     0.03     0.30    -0.18     0  20:00        0.30
  j_90639              JUNCTION     0.02     0.23    -0.17     0  20:00        0.23
  j_90640              JUNCTION     0.01     0.11    -0.18     0  20:00        0.11
  j_90641              JUNCTION     0.07     0.60    -0.24     0  19:59        0.60
  j_90642              JUNCTION     0.04     0.49    -0.24     0  20:00        0.49
  j_90643              JUNCTION     0.04     0.48    -0.24     0  20:00        0.48
  j_90644              JUNCTION     0.01     0.11    -0.04     0  19:55        0.11
  j_90645              JUNCTION     0.00     0.04     0.11     0  19:55        0.04
  j_90646              JUNCTION     0.03     0.15     0.05     0  19:55        0.15
  j_90647              JUNCTION     0.01     0.07     0.10     0  19:55        0.07
  j_90648              JUNCTION     0.01     0.13    -0.16     0  19:55        0.13
  j_90649              JUNCTION     0.02     0.13    -0.08     0  19:55        0.13
  j_90650              JUNCTION     0.03     0.23    -0.15     0  20:00        0.23
  j_90651              JUNCTION     0.02     0.25    -0.19     0  20:00        0.25
  j_90652              JUNCTION     0.02     0.24    -0.18     0  20:00        0.24
  j_90653              JUNCTION     0.01     0.07    -0.17     0  19:55        0.07
  j_90654              JUNCTION     0.06     0.47    -0.13     0  20:00        0.47
  j_90655              JUNCTION     0.08     0.52    -0.14     0  20:00        0.52
  j_90656              JUNCTION     0.07     0.53    -0.16     0  20:00        0.53
  j_90657              JUNCTION     0.01     0.07     0.30     0  19:55        0.07
  j_90658              JUNCTION     0.01     0.10     0.23     0  19:55        0.10
  j_90659              JUNCTION     0.01     0.11     0.13     0  19:55        0.11
  j_90662              JUNCTION     0.01     0.09    -0.23     0  19:55        0.09
  j_90663              JUNCTION     0.02     0.33    -0.10     0  20:00        0.33
  j_90664              JUNCTION     0.01     0.11    -0.16     0  19:55        0.11
  j_90665              JUNCTION     0.11     0.72    -0.25     0  20:01        0.72
  j_90669              JUNCTION     0.06     0.32     0.09     0  19:55        0.32
  j_90670              JUNCTION     0.08     0.34     0.09     0  19:55        0.34
  j_90671              JUNCTION     0.08     0.35     0.09     0  19:55        0.35
  j_90672              JUNCTION     0.03     0.35    -0.11     0  20:00        0.35
  j_90673              JUNCTION     0.06     0.42    -0.11     0  20:00        0.42
  j_90674              JUNCTION     0.06     0.47    -0.13     0  20:00        0.47
  j_90675              JUNCTION     0.05     0.29     0.07     0  19:55        0.29
  j_90676              JUNCTION     0.07     0.33     0.09     0  19:55        0.32
  j_90677              JUNCTION     0.10     0.38     0.09     0  19:55        0.38
  j_90678              JUNCTION     0.01     0.19     0.09     0  19:55        0.19
  j_90679              JUNCTION     0.01     0.12     0.10     0  19:55        0.12
  j_90680              JUNCTION     0.04     0.32     0.02     0  19:55        0.32
  j_90681              JUNCTION     0.06     0.34    -0.04     0  19:55        0.34
  j_90682              JUNCTION     0.00     0.05     0.02     0  19:55        0.05
  j_90683              JUNCTION     0.04     0.37    -0.08     0  20:00        0.37
  j_90684              JUNCTION     0.02     0.28    -0.08     0  20:00        0.28
  j_90685              JUNCTION     0.01     0.05     0.16     0  19:55        0.05
  j_90686              JUNCTION     0.03     0.32    -0.08     0  20:00        0.32
  j_90688              JUNCTION     0.01     0.06     0.51     0  19:55        0.06
  j_90689              JUNCTION     0.02     0.14    -0.16     0  19:55        0.14
  j_90690              JUNCTION     0.01     0.13    -0.12     0  19:55        0.13
  j_90691              JUNCTION     0.01     0.07     0.17     0  19:55        0.07
  j_90692              JUNCTION     0.01     0.05     0.25     0  19:55        0.05
  j_90693              JUNCTION     0.00     0.04     0.07     0  19:55        0.04
  j_90694              JUNCTION     0.01     0.06     0.12     0  19:55        0.06
  j_90695              JUNCTION     0.01     0.05     0.55     0  19:55        0.05
  j_90696              JUNCTION     0.01     0.08     0.08     0  19:55        0.08
  j_90697              JUNCTION     0.01     0.10     0.03     0  19:55        0.10
  j_90698              JUNCTION     0.01     0.11    -0.01     0  19:55        0.11
  j_90699              JUNCTION     0.01     0.12    -0.06     0  19:55        0.12
  j_90700              JUNCTION     0.00     0.04     0.54     0  19:55        0.04
  j_90701              JUNCTION     0.00     0.03     0.53     0  19:55        0.03
  j_90702              JUNCTION     0.00     0.03     0.53     0  19:55        0.03
  j_90703              JUNCTION     0.04     0.39    -0.09     0  19:59        0.39
  j_90704              JUNCTION     0.01     0.14    -0.08     0  19:56        0.14
  j_90705              JUNCTION     0.01     0.17    -0.09     0  19:55        0.17
  j_90706              JUNCTION     0.05     0.50    -0.04     0  19:55        0.49
  j_90707              JUNCTION     0.03     0.34    -0.04     0  19:55        0.33
  j_90708              JUNCTION     0.01     0.08    -0.03     0  19:55        0.08
  j_90709              JUNCTION     0.01     0.17    -0.03     0  19:55        0.16
  j_90710              JUNCTION     0.01     0.09     0.04     0  19:55        0.09
  j_90724              JUNCTION     0.08     0.35     0.09     0  19:55        0.35
  j_90725              JUNCTION     0.01     0.09     0.09     0  19:56        0.09
  j_90726              JUNCTION     0.00     0.04     0.09     0  19:56        0.04
  j_90727              JUNCTION     0.00     0.03     0.13     0  19:55        0.03
  j_90728              JUNCTION     0.01     0.06     0.12     0  19:55        0.06
  j_90729              JUNCTION     0.00     0.03     0.26     0  19:55        0.03
  j_90730              JUNCTION     0.01     0.17     0.09     0  19:55        0.17
  j_90731              JUNCTION     0.01     0.06     0.16     0  19:55        0.06
  j_90732              JUNCTION     0.00     0.02     0.17     0  19:55        0.02
  j_90733              JUNCTION     0.02     0.23     0.09     0  19:55        0.23
  j_91272              JUNCTION     0.00     0.00     0.17     0  00:00        0.00
  j_91273              JUNCTION     0.00     0.00     0.47     0  00:00        0.00
  j_91274              JUNCTION     0.00     0.00     0.23     0  00:00        0.00
  j_91275              JUNCTION     0.00     0.00     0.47     0  00:00        0.00
  j_91276              JUNCTION     0.00     0.00     0.28     0  00:00        0.00
  j_91277              JUNCTION     0.00     0.00     0.51     0  00:00        0.00
  j_91278              JUNCTION     0.00     0.00     0.35     0  00:00        0.00
  j_91279              JUNCTION     0.00     0.00     0.50     0  00:00        0.00
  j_91292              JUNCTION     0.00     0.00    -0.01     0  00:00        0.00
  j_91293              JUNCTION     0.00     0.06    -0.17     0  19:56        0.05
  j_91294              JUNCTION     0.00     0.00     0.31     0  00:00        0.00
  j_90552              OUTFALL      0.00     0.00    -1.29     0  00:00        0.00
  j_90431              OUTFALL      0.02     0.15    -1.46     0  19:57        0.15
  
  
  *******************
  Node Inflow Summary
  *******************
  
  -------------------------------------------------------------------------------------------------
                                  Maximum  Maximum                  Lateral       Total        Flow
                                  Lateral    Total  Time of Max      Inflow      Inflow     Balance
                                   Inflow   Inflow   Occurrence      Volume      Volume       Error
  Node                 Type           CMS      CMS  days hr:min    10^6 ltr    10^6 ltr     Percent
  -------------------------------------------------------------------------------------------------
  j_9006F              JUNCTION     0.002    0.004     1  01:35      0.0164      0.0167       0.000
  j_90334              JUNCTION     0.007    0.007     0  19:51      0.0513      0.0513       0.000
  j_90335              JUNCTION     0.012    0.012     0  19:51      0.0803      0.0803       0.000
  j_90336              JUNCTION     0.002    0.009     0  19:55      0.0135      0.0655       0.000
  j_90363              JUNCTION     0.014    0.014     0  19:51      0.0898      0.0902       0.000
  j_90364              JUNCTION     0.004    0.025     0  19:53       0.024       0.171      -0.221
  j_90365              JUNCTION     0.001    0.004     1  01:31     0.00402     0.00549       0.989
  j_90366              JUNCTION     0.005    0.005     0  19:51      0.0299      0.0299       0.000
  j_90367              JUNCTION     0.004    0.034     0  19:54      0.0279       0.228       0.013
  j_90368              JUNCTION     0.000    0.001     1  01:34           0    0.000307       2.584
  j_90369              JUNCTION     0.010    0.010     0  19:51      0.0686      0.0686       0.000
  j_90370              JUNCTION     0.005    0.026     0  19:55      0.0306       0.179      -0.203
  j_90371              JUNCTION     0.006    0.073     0  19:55      0.0405        0.55       0.006
  j_90372              JUNCTION     0.002    0.002     0  19:51      0.0164      0.0164       0.000
  j_90373              JUNCTION     0.004    0.016     1  01:34      0.0283       0.103      -0.065
  j_90374              JUNCTION     0.000    0.002     0  19:54           0    0.000943       0.000
  j_90375              JUNCTION     0.005    0.009     0  19:55      0.0353      0.0584      -0.182
  j_90376              JUNCTION     0.001    0.003     0  19:55      0.0059      0.0206       0.000
  j_90377              JUNCTION     0.005    0.008     0  19:55      0.0295      0.0501      -0.254
  j_90378              JUNCTION     0.005    0.012     0  19:55      0.0327      0.0814       0.000
  j_90379              JUNCTION     0.007    0.007     0  19:51      0.0486      0.0486      -0.338
  j_90380              JUNCTION     0.008    0.008     0  19:51      0.0552      0.0552       0.000
  j_90381              JUNCTION     0.005    0.013     0  19:55      0.0331      0.0885       0.246
  j_90382              JUNCTION     0.006    0.163     0  19:55      0.0397        1.31      -0.040
  j_90383              JUNCTION     0.005    0.149     0  19:55       0.034        1.19      -0.027
  j_90384              JUNCTION     0.003    0.015     1  01:34       0.019      0.0952       0.036
  j_90385              JUNCTION     0.004    0.011     0  19:55      0.0272      0.0763       0.128
  j_90386              JUNCTION     0.007    0.007     0  19:52       0.049       0.049      -0.228
  j_90387              JUNCTION     0.005    0.005     0  19:51      0.0317      0.0317       0.000
  j_90388              JUNCTION     0.003    0.008     0  19:55      0.0194      0.0512       0.459
  j_90389              JUNCTION     0.004    0.108     0  19:55      0.0259       0.823       0.000
  j_90390              JUNCTION     0.002    0.080     0  19:55      0.0141       0.615      -0.001
  j_90391              JUNCTION     0.003    0.025     0  19:55      0.0179       0.182       0.005
  j_90392              JUNCTION     0.005    0.023     0  19:55      0.0372       0.164       0.070
  j_90393              JUNCTION     0.009    0.018     0  19:55       0.061       0.127      -0.104
  j_90394              JUNCTION     0.003    0.008     0  19:55      0.0194      0.0522       0.283
  j_90395              JUNCTION     0.004    0.005     0  19:55      0.0234      0.0328       0.055
  j_90396              JUNCTION     0.001    0.001     0  19:51     0.00938     0.00938      -0.454
  j_90397              JUNCTION     0.004    0.134     0  19:55       0.027        1.06      -0.015
  j_90398              JUNCTION     0.005    0.027     1  01:35      0.0305       0.207      -0.020
  j_90399              JUNCTION     0.005    0.007     0  19:53      0.0319      0.0464       0.284
  j_90400              JUNCTION     0.003    0.003     0  19:52      0.0203      0.0246      -0.248
  j_90401              JUNCTION     0.005    0.006     0  19:53      0.0321      0.0423       0.205
  j_90402              JUNCTION     0.005    0.006     0  19:52      0.0321      0.0358       0.000
  j_90403              JUNCTION     0.003    0.003     0  19:51       0.019       0.019      -0.378
  j_90404              JUNCTION     0.005    0.006     0  19:55      0.0309       0.042       0.322
  j_90405              JUNCTION     0.005    0.017     1  01:35      0.0331        0.13       0.021
  j_90406              JUNCTION     0.005    0.014     0  19:53      0.0308       0.097      -0.066
  j_90407              JUNCTION     0.004    0.004     0  19:55       0.024      0.0241      -0.467
  j_90408              JUNCTION     0.010    0.010     0  19:52      0.0635      0.0635      -0.112
  j_90427              JUNCTION     0.010    0.020     0  19:53      0.0664       0.142       0.000
  j_90428              JUNCTION     0.006    0.012     0  19:53      0.0379      0.0753      -0.274
  j_90430              JUNCTION     0.003    0.567     0  19:57      0.0204        4.69       0.006
  j_90433              JUNCTION     0.002    0.002     1  01:32      0.0103      0.0105       0.000
  j_90434              JUNCTION     0.004    0.009     0  19:54      0.0232      0.0619       0.688
  j_90435              JUNCTION     0.005    0.014     0  19:55      0.0357       0.097      -0.021
  j_90436              JUNCTION     0.003    0.037     0  19:55      0.0207       0.246       0.000
  j_90437              JUNCTION     0.007    0.565     0  19:56      0.0464        4.67      -0.001
  j_90438              JUNCTION     0.006    0.517     0  19:57      0.0367        4.29       0.004
  j_90439              JUNCTION     0.003    0.012     0  19:55      0.0211      0.0779       0.000
  j_90440              JUNCTION     0.010    0.010     0  19:51      0.0644      0.0644       0.297
  j_90441              JUNCTION     0.004    0.004     0  19:51      0.0299      0.0299      -0.086
  j_90442              JUNCTION     0.010    0.117     0  19:55      0.0688       0.984       0.023
  j_90443              JUNCTION     0.014    0.504     0  19:57      0.0951        4.16      -0.022
  j_90444              JUNCTION     0.006    0.206     0  19:55      0.0373        1.73      -0.009
  j_90445              JUNCTION     0.005    0.017     0  19:55      0.0329       0.114       0.021
  j_90446              JUNCTION     0.005    0.012     0  19:55      0.0323       0.081       0.133
[...]
  c_905681                1.00   0.32  0.00  0.00  0.68  0.00  0.00  0.00  0.47  0.00
  c_905682                1.00   0.32  0.00  0.00  0.00  0.00  0.00  0.68  0.00  0.00
  c_905691                1.00   0.32  0.43  0.00  0.25  0.00  0.00  0.00  0.67  0.00
  c_905701                1.00   0.32  0.00  0.00  0.00  0.00  0.00  0.68  0.00  0.00
  c_905711                1.00   0.32  0.00  0.00  0.28  0.00  0.00  0.40  0.22  0.00
  c_905721                1.00   0.32  0.00  0.00  0.37  0.00  0.00  0.31  0.01  0.00
  c_905722                1.00   0.32  0.00  0.00  0.14  0.00  0.00  0.54  0.07  0.00
  c_905731                1.00   0.32  0.00  0.00  0.26  0.00  0.00  0.42  0.00  0.00
  c_905732                1.00   0.32  0.00  0.00  0.11  0.00  0.00  0.57  0.08  0.00
  c_905741                1.00   0.32  0.07  0.00  0.62  0.00  0.00  0.00  0.43  0.00
  c_905751                1.00   0.32  0.03  0.00  0.65  0.00  0.00  0.00  0.43  0.00
  c_905752                1.00   0.32  0.00  0.00  0.68  0.00  0.00  0.00  0.23  0.00
  c_905761                1.00   0.32  0.00  0.00  0.68  0.00  0.00  0.00  0.05  0.00
  c_905771                1.00   0.32  0.00  0.00  0.68  0.00  0.00  0.00  0.27  0.00
  c_905781                1.00   0.32  0.22  0.00  0.46  0.00  0.00  0.00  0.31  0.00
  c_905791                1.00   0.54  0.03  0.00  0.43  0.00  0.00  0.00  0.40  0.00
  c_905811                1.00   0.62  0.11  0.00  0.27  0.00  0.00  0.00  0.67  0.00
  c_905821                1.00   0.32  0.00  0.00  0.68  0.00  0.00  0.00  0.00  0.00
  c_905831                1.00   0.32  0.42  0.00  0.26  0.00  0.00  0.00  0.67  0.00
  c_905841                1.00   0.32  0.31  0.00  0.38  0.00  0.00  0.00  0.66  0.00
  c_905851                1.00   0.32  0.01  0.00  0.67  0.00  0.00  0.00  0.36  0.00
  c_905852                1.00   0.32  0.00  0.00  0.11  0.00  0.00  0.57  0.08  0.00
  c_905861                1.00   0.32  0.00  0.00  0.42  0.00  0.00  0.26  0.00  0.00
  c_905862                1.00   0.32  0.00  0.00  0.08  0.00  0.00  0.60  0.05  0.00
  c_905871                1.00   0.32  0.02  0.00  0.67  0.00  0.00  0.00  0.35  0.00
  c_905881                1.00   0.32  0.00  0.00  0.16  0.00  0.00  0.52  0.19  0.00
  c_905891                1.00   0.32  0.28  0.00  0.40  0.00  0.00  0.00  0.64  0.00
  c_905892                1.00   0.60  0.18  0.00  0.22  0.00  0.00  0.00  0.63  0.00
  c_905901                1.00   0.65  0.06  0.00  0.29  0.00  0.00  0.00  0.66  0.00
  c_905902                1.00   0.71  0.00  0.00  0.20  0.00  0.00  0.09  0.00  0.00
  c_905921                1.00   0.32  0.06  0.00  0.63  0.00  0.00  0.00  0.44  0.00
  c_905931                1.00   0.32  0.00  0.00  0.68  0.00  0.00  0.00  0.00  0.00
  c_905941                1.00   0.32  0.03  0.00  0.65  0.00  0.00  0.00  0.45  0.00
  c_905942                1.00   0.32  0.00  0.00  0.23  0.00  0.45  0.00  0.00  0.00
  c_905951                1.00   0.32  0.00  0.00  0.09  0.00  0.00  0.60  0.05  0.00
  c_905961                1.00   0.32  0.00  0.00  0.10  0.00  0.00  0.59  0.06  0.00
  c_905971                1.00   0.32  0.30  0.00  0.38  0.00  0.00  0.00  0.60  0.00
  c_905981                1.00   0.32  0.39  0.00  0.29  0.00  0.00  0.00  0.67  0.00
  c_905982                1.00   0.62  0.09  0.00  0.29  0.00  0.00  0.00  0.50  0.00
  c_905991                1.00   0.32  0.04  0.00  0.65  0.00  0.00  0.00  0.04  0.00
  c_906001                1.00   0.62  0.09  0.00  0.29  0.00  0.00  0.00  0.66  0.00
  c_906011                1.00   0.71  0.02  0.00  0.27  0.00  0.00  0.00  0.64  0.00
  c_906031                1.00   0.32  0.00  0.00  0.24  0.00  0.00  0.44  0.00  0.00
  c_906041                1.00   0.32  0.46  0.00  0.22  0.00  0.00  0.00  0.66  0.00
  c_906051                1.00   0.32  0.27  0.00  0.41  0.00  0.00  0.00  0.63  0.00
  c_906052                1.00   0.32  0.00  0.00  0.15  0.00  0.00  0.53  0.05  0.00
  c_906061                1.00   0.32  0.10  0.00  0.58  0.00  0.00  0.00  0.55  0.00
  c_906071                1.00   0.32  0.22  0.00  0.46  0.00  0.00  0.00  0.46  0.00
  c_906081                1.00   0.54  0.04  0.00  0.42  0.00  0.00  0.00  0.51  0.00
  c_906082                1.00   0.32  0.00  0.00  0.68  0.00  0.00  0.00  0.61  0.00
  c_906091                1.00   0.32  0.35  0.00  0.33  0.00  0.00  0.00  0.67  0.00
  c_906101                1.00   0.32  0.35  0.00  0.33  0.00  0.00  0.00  0.64  0.00
  c_906111                1.00   0.32  0.00  0.00  0.32  0.00  0.00  0.36  0.26  0.00
  c_906112                1.00   0.32  0.00  0.00  0.25  0.00  0.00  0.43  0.01  0.00
  c_906121                1.00   0.32  0.38  0.00  0.30  0.00  0.00  0.00  0.66  0.00
  c_906131                1.00   0.70  0.03  0.00  0.28  0.00  0.00  0.00  0.67  0.00
  c_906132                1.00   0.71  0.01  0.00  0.28  0.00  0.00  0.00  0.67  0.00
  c_906151                1.00   0.32  0.00  0.00  0.16  0.00  0.00  0.52  0.05  0.00
  c_906161                1.00   0.32  0.38  0.00  0.31  0.00  0.00  0.00  0.67  0.00
  c_906171                1.00   0.69  0.01  0.00  0.29  0.00  0.00  0.00  0.68  0.00
  c_906181                1.00   0.32  0.39  0.00  0.29  0.00  0.00  0.00  0.68  0.00
  c_906191                1.00   0.32  0.00  0.00  0.68  0.00  0.00  0.00  0.40  0.00
  c_906192                1.00   0.32  0.00  0.00  0.68  0.00  0.00  0.00  0.27  0.00
  c_906201                1.00   0.32  0.00  0.00  0.68  0.00  0.00  0.00  0.00  0.00
  c_906202                1.00   0.32  0.00  0.00  0.03  0.00  0.00  0.65  0.01  0.00
  c_906211                1.00   0.32  0.00  0.00  0.68  0.00  0.00  0.00  0.28  0.00
  c_906231                1.00   0.32  0.00  0.00  0.68  0.00  0.00  0.00  0.40  0.00
  c_906241                1.00   0.60  0.02  0.00  0.37  0.00  0.00  0.01  0.43  0.00
  c_906261                1.00   0.56  0.07  0.00  0.37  0.00  0.00  0.00  0.50  0.00
  c_906271                1.00   0.55  0.01  0.00  0.37  0.00  0.00  0.07  0.35  0.00
  c_906272                1.00   0.32  0.00  0.00  0.68  0.00  0.00  0.00  0.00  0.00
  c_906281                1.00   0.32  0.00  0.00  0.06  0.00  0.00  0.62  0.03  0.00
  c_906291                1.00   0.32  0.35  0.00  0.33  0.00  0.00  0.00  0.65  0.00
  c_906301                1.00   0.32  0.00  0.00  0.00  0.00  0.00  0.68  0.00  0.00
  c_906321                1.00   0.67  0.32  0.00  0.00  0.00  0.00  0.00  0.55  0.00
  c_906322                1.00   0.32  0.00  0.00  0.20  0.00  0.00  0.49  0.00  0.00
  c_906331                1.00   0.32  0.00  0.00  0.68  0.00  0.00  0.00  0.45  0.00
  c_906341                1.00   0.32  0.00  0.00  0.12  0.00  0.00  0.56  0.06  0.00
  c_906342                1.00   0.32  0.00  0.00  0.50  0.00  0.00  0.18  0.00  0.00
  c_906351                1.00   0.63  0.13  0.00  0.24  0.00  0.00  0.00  0.54  0.00
  c_906352                1.00   0.32  0.00  0.00  0.25  0.00  0.00  0.43  0.00  0.00
  c_906361                1.00   0.32  0.00  0.00  0.29  0.00  0.00  0.39  0.15  0.00
  c_906371                1.00   0.32  0.00  0.00  0.68  0.00  0.00  0.00  0.54  0.00
  c_906381                1.00   0.32  0.00  0.00  0.08  0.00  0.00  0.60  0.02  0.00
  c_906391                1.00   0.32  0.24  0.00  0.44  0.00  0.00  0.00  0.66  0.00
  c_906401                1.00   0.32  0.60  0.00  0.01  0.00  0.07  0.00  0.11  0.00
  c_906402                1.00   0.32  0.00  0.00  0.13  0.00  0.00  0.56  0.02  0.00
  c_906411                1.00   0.57  0.01  0.00  0.41  0.00  0.00  0.00  0.38  0.00
  c_906421                1.00   0.59  0.03  0.00  0.38  0.00  0.00  0.00  0.51  0.00
  c_906431                1.00   0.57  0.01  0.00  0.42  0.00  0.00  0.00  0.29  0.00
  c_906441                1.00   0.32  0.00  0.00  0.00  0.00  0.00  0.68  0.00  0.00
  c_906461                1.00   0.32  0.27  0.00  0.41  0.00  0.00  0.00  0.68  0.00
  c_906471                1.00   0.67  0.02  0.00  0.30  0.00  0.00  0.01  0.66  0.00
  c_906481                1.00   0.32  0.38  0.00  0.30  0.00  0.00  0.00  0.67  0.00
  c_906491                1.00   0.79  0.00  0.00  0.19  0.00  0.00  0.02  0.02  0.00
  c_906492                1.00   0.32  0.00  0.00  0.00  0.00  0.00  0.68  0.00  0.00
  c_906501                1.00   0.32  0.02  0.00  0.66  0.00  0.00  0.00  0.67  0.00
  c_906511                1.00   0.32  0.24  0.00  0.44  0.00  0.00  0.00  0.66  0.00
  c_906521                1.00   0.56  0.06  0.00  0.38  0.00  0.00  0.00  0.36  0.00
  c_906531                1.00   0.62  0.08  0.00  0.30  0.00  0.00  0.00  0.67  0.00
  c_906541                1.00   0.32  0.00  0.00  0.68  0.00  0.00  0.00  0.43  0.00
  c_906561                1.00   0.32  0.00  0.00  0.34  0.00  0.34  0.00  0.00  0.00
  c_906562                1.00   0.32  0.00  0.00  0.68  0.00  0.00  0.00  0.00  0.00
  c_906563                1.00   0.32  0.00  0.00  0.08  0.00  0.00  0.61  0.03  0.00
  c_906581                1.00   0.69  0.04  0.00  0.27  0.00  0.00  0.00  0.67  0.00
  c_906591                1.00   0.32  0.00  0.00  0.00  0.00  0.00  0.68  0.00  0.00
  c_906592                1.00   0.32  0.37  0.00  0.31  0.00  0.00  0.00  0.66  0.00
  c_906621                1.00   0.32  0.00  0.00  0.00  0.00  0.00  0.68  0.00  0.00
  c_906622                1.00   0.32  0.01  0.00  0.60  0.07  0.00  0.00  0.49  0.00
  c_906631                1.00   0.32  0.00  0.00  0.06  0.00  0.00  0.62  0.00  0.00
  c_906641                1.00   0.32  0.00  0.00  0.18  0.00  0.00  0.50  0.00  0.00
  c_906651                1.00   0.32  0.00  0.00  0.48  0.00  0.00  0.21  0.00  0.00
  c_906701                1.00   0.32  0.00  0.00  0.68  0.00  0.00  0.00  0.00  0.00
  c_906731                1.00   0.32  0.00  0.00  0.25  0.00  0.00  0.43  0.00  0.00
  c_906741                1.00   0.32  0.00  0.00  0.68  0.00  0.00  0.00  0.00  0.00
  c_906742                1.00   0.32  0.00  0.00  0.51  0.00  0.00  0.17  0.11  0.00
  c_906751                1.00   0.41  0.23  0.00  0.36  0.00  0.00  0.00  0.42  0.00
  c_906761                1.00   0.32  0.00  0.00  0.68  0.00  0.00  0.00  0.01  0.00
  c_906771                1.00   0.32  0.00  0.00  0.68  0.00  0.00  0.00  0.00  0.00
  c_906772                1.00   0.32  0.00  0.00  0.68  0.00  0.00  0.00  0.00  0.00
  c_906781                1.00   0.32  0.30  0.00  0.39  0.00  0.00  0.00  0.58  0.00
  c_906791                1.00   0.61  0.09  0.00  0.30  0.00  0.00  0.00  0.53  0.00
  c_906801                1.00   0.32  0.00  0.00  0.27  0.00  0.00  0.41  0.07  0.00
  c_906811                1.00   0.32  0.00  0.00  0.68  0.00  0.00  0.00  0.55  0.00
  c_906821                1.00   0.32  0.32  0.00  0.37  0.00  0.00  0.00  0.68  0.00
  c_906831                1.00   0.32  0.00  0.00  0.08  0.00  0.00  0.60  0.00  0.00
  c_906832                1.00   0.32  0.00  0.00  0.68  0.00  0.00  0.00  0.59  0.00
  c_906841                1.00   0.32  0.00  0.00  0.20  0.00  0.00  0.48  0.01  0.00
  c_906851                1.00   0.32  0.00  0.00  0.00  0.00  0.00  0.68  0.00  0.00
  c_906861                1.00   0.32  0.29  0.00  0.40  0.00  0.00  0.00  0.47  0.00
  c_906862                1.00   0.60  0.07  0.00  0.32  0.00  0.00  0.00  0.51  0.00
  c_906891                1.00   0.32  0.00  0.00  0.00  0.00  0.00  0.68  0.00  0.00
  c_906892                1.00   0.32  0.00  0.00  0.00  0.00  0.00  0.68  0.00  0.00
  c_906901                1.00   0.32  0.09  0.00  0.59  0.00  0.00  0.00  0.66  0.00
  c_906911                1.00   0.32  0.00  0.00  0.00  0.00  0.00  0.68  0.00  0.00
  c_906921                1.00   0.32  0.31  0.00  0.37  0.00  0.00  0.00  0.68  0.00
  c_906931                1.00   0.63  0.37  0.00  0.00  0.00  0.00  0.00  0.00  0.00
  c_906932                1.00   0.32  0.00  0.00  0.00  0.00  0.00  0.68  0.00  0.00
  c_906941                1.00   0.32  0.68  0.00  0.00  0.00  0.00  0.00  0.55  0.00
  c_906951                1.00   0.32  0.00  0.00  0.00  0.00  0.00  0.68  0.00  0.00
  c_906961                1.00   0.32  0.00  0.00  0.68  0.00  0.00  0.00  0.66  0.00
  c_906971                1.00   0.32  0.00  0.00  0.68  0.00  0.00  0.00  0.68  0.00
  c_906981                1.00   0.32  0.00  0.00  0.68  0.00  0.00  0.00  0.66  0.00
  c_906991                1.00   0.32  0.00  0.00  0.68  0.00  0.00  0.00  0.64  0.00
  c_906992                1.00   0.41  0.18  0.00  0.41  0.00  0.00  0.00  0.67  0.00
  c_907001                1.00   0.32  0.00  0.00  0.00  0.00  0.00  0.68  0.00  0.00
  c_907011                1.00   0.32  0.00  0.00  0.00  0.00  0.00  0.68  0.00  0.00
  c_907021                1.00   0.32  0.00  0.00  0.00  0.00  0.00  0.68  0.00  0.00
  c_907031                1.00   0.32  0.25  0.00  0.44  0.00  0.00  0.00  0.43  0.00
  c_907032                1.00   0.32  0.00  0.00  0.13  0.00  0.00  0.55  0.08  0.00
  c_907033                1.00   0.32  0.00  0.00  0.36  0.00  0.00  0.32  0.11  0.00
  c_907041                1.00   0.32  0.00  0.00  0.14  0.00  0.00  0.54  0.00  0.00
  c_907042                1.00   0.32  0.39  0.00  0.29  0.00  0.00  0.00  0.48  0.00
  c_907051                1.00   0.78  0.21  0.00  0.01  0.00  0.00  0.00  0.00  0.00
  c_907061                1.00   0.32  0.00  0.00  0.68  0.00  0.00  0.00  0.01  0.00
  c_907062                1.00   0.32  0.00  0.00  0.68  0.00  0.00  0.00  0.50  0.00
  c_907071                1.00   0.32  0.00  0.00  0.08  0.00  0.00  0.60  0.00  0.00
  c_907081                1.00   0.32  0.00  0.00  0.03  0.00  0.00  0.65  0.01  0.00
  c_907091                1.00   0.32  0.19  0.00  0.49  0.00  0.00  0.00  0.66  0.00
  c_907101                1.00   0.51  0.13  0.00  0.36  0.00  0.00  0.00  0.65  0.00
  c_907241                1.00   0.32  0.00  0.00  0.68  0.00  0.00  0.00  0.00  0.00
  c_907242                1.00   0.32  0.00  0.00  0.68  0.00  0.00  0.00  0.00  0.00
  c_907251                1.00   0.32  0.00  0.00  0.36  0.00  0.00  0.32  0.60  0.00
  c_907261                1.00   0.32  0.40  0.00  0.28  0.00  0.00  0.00  0.66  0.00
  c_907271                1.00   0.66  0.02  0.00  0.32  0.00  0.00  0.00  0.66  0.00
  c_907281                1.00   0.58  0.42  0.00  0.00  0.00  0.00  0.00  0.00  0.00
  c_907291                1.00   0.58  0.06  0.00  0.36  0.00  0.00  0.00  0.68  0.00
  c_907301                1.00   0.54  0.03  0.00  0.42  0.00  0.00  0.00  0.67  0.00
  c_907311                1.00   0.54  0.06  0.00  0.40  0.00  0.00  0.00  0.66  0.00
  c_907321                1.00   0.60  0.12  0.00  0.29  0.00  0.00  0.00  0.68  0.00
  c_907331                1.00   0.32  0.22  0.00  0.46  0.00  0.00  0.00  0.61  0.00
  c_907332                1.00   0.32  0.00  0.00  0.35  0.00  0.00  0.33  0.12  0.00
  c_912721                1.00   1.00  0.00  0.00  0.00  0.00  0.00  0.00  0.00  0.00
  c_912731                1.00   1.00  0.00  0.00  0.00  0.00  0.00  0.00  0.00  0.00
  c_912741                1.00   1.00  0.00  0.00  0.00  0.00  0.00  0.00  0.00  0.00
  c_912751                1.00   1.00  0.00  0.00  0.00  0.00  0.00  0.00  0.00  0.00
  c_912761                1.00   1.00  0.00  0.00  0.00  0.00  0.00  0.00  0.00  0.00
  c_912771                1.00   1.00  0.00  0.00  0.00  0.00  0.00  0.00  0.00  0.00
  c_912781                1.00   1.00  0.00  0.00  0.00  0.00  0.00  0.00  0.00  0.00
  c_912791                1.00   1.00  0.00  0.00  0.00  0.00  0.00  0.00  0.00  0.00
  c_912931                1.00   0.45  0.55  0.00  0.00  0.00  0.00  0.00  0.00  0.00
  c_912932                1.00   0.45  0.00  0.00  0.01  0.00  0.00  0.54  0.00  0.00
  c_912941                1.00   1.00  0.00  0.00  0.00  0.00  0.00  0.00  0.00  0.00
  
  
  *************************
  Conduit Surcharge Summary
  *************************
  
  ----------------------------------------------------------------------------
                                                           Hours        Hours 
                         --------- Hours Full --------   Above Full   Capacity
  Conduit                Both Ends  Upstream  Dnstream   Normal Flow   Limited
  ----------------------------------------------------------------------------
  c_903642                    0.01      0.01      0.01      1.26         0.01
  c_903981                    0.01      0.01      0.10      0.01         0.01
  c_904381                    0.01      0.01      0.01      0.13         0.01
  c_904421                    0.01      0.01      0.01      1.52         0.01
  c_904441                    0.01      0.01      0.06      0.01         0.01
  c_904592                    0.01      0.01      0.01      0.29         0.01
  c_904881                    0.01      0.01      0.16      0.01         0.01
  c_904921                    0.01      0.01      0.14      0.01         0.01
  c_904951                    0.30      0.30      0.33      0.01         0.01
  c_904952                    1.25      1.26      1.33      0.08         0.03
  c_905051                    0.01      0.01      0.24      0.01         0.01
  c_905121                    0.18      0.18      0.25      0.01         0.01
  c_905241                    0.01      0.01      0.21      0.01         0.01
  c_905521                    0.01      0.01      0.01      0.18         0.01
  c_905571                    0.01      0.01      0.01      0.62         0.01
  c_905591                    0.01      0.01      0.02      0.01         0.01
  c_905601                    0.07      0.07      0.14      0.01         0.01
  c_905602                    0.01      0.01      0.07      0.01         0.01
  c_905632                    0.01      0.01      0.01      6.86         0.01
  c_905741                    1.33      1.33      1.65      0.01         0.01
  c_905751                    1.47      1.47      3.20      0.01         0.01
  c_905752                    0.01      0.01      0.11      0.01         0.01
  c_905851                    0.01      0.01      0.02      0.01         0.01
  c_905861                    0.01      0.01      0.01      8.24         0.01
  c_905921                    0.31      0.31      0.43      0.01         0.01
  c_905931                    0.01      0.01      0.01      7.63         0.01
  c_905942                    0.33      0.33      0.43      2.53         0.01
  c_906201                    0.01      0.01      0.01      5.37         0.01
  c_906241                    0.34      0.34      1.21      0.01         0.01
  c_906261                    0.22      0.22      0.61      0.01         0.01
  c_906271                    0.61      0.61      1.04      0.01         0.01
  c_906322                    0.01      0.01      0.01      0.42         0.01
  c_906351                    0.07      0.07      0.22      0.01         0.01
  c_906352                    0.23      0.23      0.25      0.01         0.01
  c_906361                    0.01      0.01      0.19      0.01         0.01
  c_906631                    0.01      0.01      0.01      0.33         0.01
  c_906651                    2.54      2.54      2.54      0.01         0.05
  c_906731                    0.33      0.33      0.33      0.32         0.13
  c_906741                    0.01      0.01      0.01      1.40         0.01
  c_906781                    0.01      0.01      0.45      0.01         0.01
  c_906821                    0.01      0.01      0.23      0.01         0.01
  c_906841                    0.18      0.18      0.21      0.01         0.01
  c_907061                    0.20      0.20      0.30      0.01         0.01
  c_907062                    0.20      0.20      0.31      0.01         0.01
  c_907091                    0.01      0.01      0.18      0.01         0.01
  c_907242                    0.01      0.01      0.01      0.01         0.01
  

  Analysis begun on:  Sun Jun 12 01:35:25 2022
  Analysis ended on:  Sun Jun 12 01:36:15 2022
  Total elapsed time: 00:00:50