
  EPA STORM WATER MANAGEMENT MODEL - VERSION 5.1 (Build 5.1.015)
  --------------------------------------------------------------

  WARNING 04: minimum elevation drop used for Conduit c_903642
  WARNING 04: minimum elevation drop used for Conduit c_903651
  WARNING 04: minimum elevation drop used for Conduit c_903672
  WARNING 04: minimum elevation drop used for Conduit c_905571
  WARNING 04: minimum elevation drop used for Conduit c_905632
  WARNING 04: minimum elevation drop used for Conduit c_905821
  WARNING 04: minimum elevation drop used for Conduit c_905861
  WARNING 04: minimum elevation drop used for Conduit c_905931
  WARNING 04: minimum elevation drop used for Conduit c_906201
  WARNING 04: minimum elevation drop used for Conduit c_906322
  WARNING 04: minimum elevation drop used for Conduit c_906631
  WARNING 04: minimum elevation drop used for Conduit c_906641
  WARNING 04: minimum elevation drop used for Conduit c_906651
  WARNING 04: minimum elevation drop used for Conduit c_906731
  WARNING 04: minimum elevation drop used for Conduit c_906741
  WARNING 04: minimum elevation drop used for Conduit c_907242
  
  *********************
  Rainfall File Summary
  *********************
  Station    First        Last         Recording   Periods    Periods    Periods
  ID         Date         Date         Frequency  w/Precip    Missing    Malfunc.
  -------------------------------------------------------------------------------
  R1         01/01/2019   01/01/2019       5 min        46          0          0
  R1         01/01/2019   01/01/2019       5 min        46          0          0
  R1         01/01/2019   01/01/2019       5 min        46          0          0

  
  *********************************************************
  NOTE: The summary statistics displayed in this report are
  based on results found at every computational time step,  
  not just on results from each reporting time step.
  *********************************************************
  
  ****************
  Analysis Options
  ****************
  Flow Units ............... CMS
  Process Models:
    Rainfall/Runoff ........ YES
    RDII ................... NO
    Snowmelt ............... NO
    Groundwater ............ NO
    Flow Routing ........... YES
    Ponding Allowed ........ NO
    Water Quality .......... NO
  Infiltration Method ...... HORTON
  Flow Routing Method ...... DYNWAVE
  Surcharge Method ......... EXTRAN
  Starting Date ............ 01/01/2019 00:00:00
  Ending Date .............. 01/01/2019 03:50:00
  Antecedent Dry Days ...... 0.0
  Report Time Step ......... 00:05:00
  Wet Time Step ............ 00:01:00
  Dry Time Step ............ 00:10:00
  Routing Time Step ........ 1.00 sec
  Variable Time Step ....... YES
  Maximum Trials ........... 12
  Number of Threads ........ 2
  Head Tolerance ........... 0.000200 m
  
  
  **************************        Volume         Depth
  Runoff Quantity Continuity     hectare-m            mm
  **************************     ---------       -------
  Total Precipitation ......         0.366        13.197
  Evaporation Loss .........         0.003         0.110
  Infiltration Loss ........         0.018         0.655
  Surface Runoff ...........         0.250         9.003
  Final Storage ............         0.101         3.652
  Continuity Error (%) .....        -1.689
  
  
  **************************        Volume        Volume
  Flow Routing Continuity        hectare-m      10^6 ltr
  **************************     ---------     ---------
  Dry Weather Inflow .......         0.000         0.000
  Wet Weather Inflow .......         0.250         2.498
  Groundwater Inflow .......         0.000         0.000
  RDII Inflow ..............         0.000         0.000
  External Inflow ..........         0.000         0.000
  External Outflow .........         0.249         2.491
  Flooding Loss ............         0.000         0.000
  Evaporation Loss .........         0.000         0.000
  Exfiltration Loss ........         0.000         0.000
  Initial Stored Volume ....         0.000         0.000
  Final Stored Volume ......         0.002         0.016
  Continuity Error (%) .....        -0.372
  
  
  *************************
  Highest Continuity Errors
  *************************
  Node j_90434 (3.52%)
  Node j_90638 (2.73%)
  Node j_90650 (2.66%)
  Node j_90628 (2.37%)
  Node j_90510 (2.30%)
  
  
  ***************************
  Time-Step Critical Elements
  ***************************
  Link c_904312 (22.15%)
  
  
  ********************************
  Highest Flow Instability Indexes
  ********************************
  All links are stable.
  
  
  *************************
  Routing Time Step Summary
  *************************
  Minimum Time Step           :     0.50 sec
  Average Time Step           :     0.93 sec
  Maximum Time Step           :     1.00 sec
  Percent in Steady State     :     2.17
  Average Iterations per Step :     2.19
  Percent Not Converging      :     1.18
  Time Step Frequencies       :
      1.000 -  0.871 sec      :    80.81 %
      0.871 -  0.758 sec      :     3.51 %
      0.758 -  0.660 sec      :     4.59 %
      0.660 -  0.574 sec      :    10.48 %
      0.574 -  0.500 sec      :     0.61 %
  
  
  ***************************
  Subcatchment Runoff Summary
  ***************************
  
  ------------------------------------------------------------------------------------------------------------------------------
                            Total      Total      Total      Total     Imperv       Perv      Total       Total     Peak  Runoff
                           Precip      Runon       Evap      Infil     Runoff     Runoff     Runoff      Runoff   Runoff   Coeff
  Subcatchment                 mm         mm         mm         mm         mm         mm         mm    10^6 ltr      CMS
  ------------------------------------------------------------------------------------------------------------------------------
  sub_9006F                 13.20       0.00       0.11       0.54       4.98       3.76       8.74        0.00     0.00   0.662
  sub_90334                 13.20       0.00       0.11       1.43       0.90       9.93      10.83        0.01     0.01   0.821
  sub_90335                 13.20       0.00       0.11       0.33       5.96       2.28       8.24        0.02     0.02   0.624
  sub_90336                 13.20       0.00       0.11       1.10       2.41       7.65      10.06        0.00     0.00   0.762
  sub_90363                 13.20       0.00       0.11       0.33       5.95       2.30       8.25        0.02     0.02   0.625
  sub_90364                 13.20       0.00       0.11       1.22       1.90       8.42      10.32        0.01     0.01   0.782
  sub_90365                 13.20       0.00       0.11       1.63       0.00      11.29      11.29        0.00     0.00   0.856
  sub_90366                 13.20       0.00       0.11       0.55       4.94       3.82       8.76        0.01     0.01   0.664
  sub_90367                 13.20       0.00       0.11       0.93       3.22       6.43       9.64        0.01     0.01   0.731
  sub_90369                 13.20       0.00       0.11       0.66       4.42       4.60       9.02        0.01     0.02   0.684
  sub_90370                 13.20       0.00       0.11       0.45       5.42       3.09       8.51        0.01     0.01   0.645
  sub_90371                 13.20       0.00       0.11       0.23       6.40       1.61       8.01        0.01     0.01   0.607
  sub_90372                 13.20       0.00       0.11       1.03       2.75       7.13       9.88        0.00     0.00   0.749
  sub_90373                 13.20       0.00       0.11       0.07       7.14       0.49       7.63        0.01     0.01   0.578
  sub_90375                 13.20       0.00       0.11       0.33       5.97       2.26       8.23        0.01     0.01   0.624
  sub_90376                 13.20       0.00       0.11       0.58       4.80       4.03       8.83        0.00     0.00   0.669
  sub_90377                 13.20       0.00       0.11       0.34       5.89       2.39       8.27        0.01     0.01   0.627
  sub_90378                 13.20       0.00       0.11       0.46       5.36       3.18       8.55        0.01     0.01   0.648
  sub_90379                 13.20       0.00       0.11       0.77       3.93       5.35       9.28        0.01     0.01   0.703
  sub_90380                 13.20       0.00       0.11       0.70       4.25       4.86       9.11        0.01     0.01   0.691
  sub_90381                 13.20       0.00       0.11       0.71       4.21       4.92       9.13        0.01     0.01   0.692
  sub_90382                 13.20       0.00       0.11       0.59       4.77       4.08       8.85        0.01     0.01   0.671
  sub_90383                 13.20       0.00       0.11       0.50       5.16       3.48       8.65        0.01     0.01   0.655
  sub_90384                 13.20       0.00       0.11       0.96       3.05       6.67       9.73        0.00     0.00   0.737
  sub_90385                 13.20       0.00       0.11       0.43       5.51       2.95       8.47        0.01     0.01   0.642
  sub_90386                 13.20       0.00       0.11       0.78       3.90       5.40       9.30        0.01     0.01   0.704
  sub_90387                 13.20       0.00       0.11       0.61       4.68       4.22       8.89        0.01     0.01   0.674
  sub_90388                 13.20       0.00       0.11       0.60       4.71       4.17       8.88        0.00     0.00   0.673
  sub_90389                 13.20       0.00       0.11       0.67       4.41       4.63       9.03        0.01     0.01   0.685
  sub_90390                 13.20       0.00       0.11       0.84       3.62       5.82       9.44        0.00     0.00   0.715
  sub_90391                 13.20       0.00       0.11       1.63       0.00      11.29      11.29        0.00     0.00   0.856
  sub_90392                 13.20       0.00       0.11       1.04       2.69       7.22       9.91        0.01     0.01   0.751
  sub_90393                 13.20       0.00       0.11       1.03       2.75       7.13       9.88        0.01     0.01   0.749
  sub_90394                 13.20       0.00       0.11       0.98       2.99       6.77       9.76        0.00     0.00   0.740
  sub_90395                 13.20       0.00       0.11       0.38       5.73       2.62       8.35        0.00     0.01   0.633
  sub_90396                 13.20       0.00       0.11       0.00       7.47       0.00       7.47        0.00     0.00   0.566
  sub_90397                 13.20       0.00       0.11       0.88       3.44       6.09       9.53        0.01     0.01   0.722
  sub_90398                 13.20       0.00       0.11       0.92       3.26       6.36       9.62        0.01     0.01   0.729
  sub_90399                 13.20       0.00       0.11       0.51       5.11       3.57       8.67        0.01     0.01   0.657
  sub_90400                 13.20       0.00       0.11       0.61       4.67       4.23       8.90        0.00     0.00   0.674
  sub_90401                 13.20       0.00       0.11       0.36       5.82       2.49       8.31        0.01     0.01   0.630
  sub_90402                 13.20       0.00       0.11       0.38       5.72       2.64       8.36        0.01     0.01   0.634
  sub_90403                 13.20       0.00       0.11       0.62       4.65       4.27       8.91        0.00     0.00   0.675
  sub_90404                 13.20       0.00       0.11       0.65       4.50       4.49       8.99        0.01     0.01   0.681
  sub_90405                 13.20       0.00       0.11       0.71       4.21       4.92       9.13        0.01     0.01   0.692
  sub_90406                 13.20       0.00       0.11       0.86       3.53       5.96       9.49        0.01     0.01   0.719
  sub_90407                 13.20       0.00       0.11       0.84       3.60       5.85       9.45        0.01     0.01   0.716
  sub_90408                 13.20       0.00       0.11       0.54       4.99       3.74       8.73        0.01     0.01   0.662
  sub_90427                 13.20       0.00       0.11       0.63       4.57       4.39       8.95        0.01     0.01   0.678
  sub_90428                 13.20       0.00       0.11       0.77       3.94       5.33       9.27        0.01     0.01   0.703
  sub_90430                 13.20       0.00       0.11       0.37       5.79       2.53       8.33        0.00     0.00   0.631
  sub_90431                 13.20       0.00       0.11       0.59       4.76       4.09       8.85        0.01     0.01   0.671
  sub_90433                 13.20       0.00       0.11       0.82       3.73       5.65       9.38        0.00     0.00   0.711
  sub_90434                 13.20       0.00       0.11       0.29       6.13       2.02       8.15        0.00     0.01   0.618
  sub_90435                 13.20       0.00       0.11       0.52       5.10       3.59       8.68        0.01     0.01   0.658
  sub_90436                 13.20       0.00       0.11       0.26       6.27       1.81       8.08        0.00     0.00   0.612
  sub_90437                 13.20       0.00       0.11       0.41       5.58       2.85       8.43        0.01     0.01   0.639
  sub_90438                 13.20       0.00       0.11       0.58       4.81       4.02       8.83        0.01     0.01   0.669
  sub_90439                 13.20       0.00       0.11       0.59       4.78       4.06       8.84        0.00     0.00   0.670
  sub_90440                 13.20       0.00       0.11       0.66       4.42       4.61       9.03        0.01     0.01   0.684
  sub_90441                 13.20       0.00       0.11       1.09       2.49       7.53      10.02        0.01     0.01   0.759
  sub_90442                 13.20       0.00       0.11       1.28       1.62       8.85      10.46        0.02     0.01   0.793
  sub_90443                 13.20       0.00       0.11       0.95       3.11       6.59       9.70        0.02     0.02   0.735
  sub_90444                 13.20       0.00       0.11       0.46       5.37       3.17       8.54        0.01     0.01   0.647
  sub_90445                 13.20       0.00       0.11       0.80       3.78       5.57       9.35        0.01     0.01   0.709
  sub_90446                 13.20       0.00       0.11       0.49       5.24       3.37       8.61        0.01     0.01   0.652
  sub_90447                 13.20       0.00       0.11       0.76       4.00       5.25       9.24        0.01     0.01   0.701
  sub_90448                 13.20       0.00       0.11       0.70       4.24       4.88       9.12        0.01     0.01   0.691
  sub_90449                 13.20       0.00       0.11       0.66       4.42       4.60       9.02        0.00     0.01   0.684
  sub_90450                 13.20       0.00       0.11       0.56       4.89       3.89       8.79        0.00     0.00   0.666
  sub_90451                 13.20       0.00       0.11       0.71       4.19       4.95       9.14        0.01     0.01   0.693
  sub_90452                 13.20       0.00       0.11       0.92       3.27       6.35       9.62        0.00     0.00   0.729
  sub_90453                 13.20       0.00       0.11       0.47       5.31       3.26       8.57        0.01     0.01   0.650
  sub_90454                 13.20       0.00       0.11       0.63       4.56       4.40       8.96        0.01     0.01   0.679
  sub_90455                 13.20       0.00       0.11       0.35       5.87       2.42       8.29        0.01     0.01   0.628
  sub_90456                 13.20       0.00       0.11       0.95       3.14       6.55       9.68        0.01     0.01   0.734
  sub_90457                 13.20       0.00       0.11       0.93       3.21       6.44       9.65        0.02     0.02   0.731
  sub_90459                 13.20       0.00       0.11       1.13       2.30       7.82      10.11        0.02     0.02   0.766
  sub_90460                 13.20       0.00       0.11       1.51       0.54      10.47      11.01        0.01     0.01   0.835
  sub_90461                 13.20       0.00       0.11       0.54       4.98       3.76       8.74        0.00     0.00   0.662
  sub_90462                 13.20       0.00       0.11       0.77       3.96       5.31       9.26        0.01     0.01   0.702
  sub_90463                 13.20       0.00       0.11       0.39       5.66       2.73       8.39        0.01     0.01   0.636
  sub_90464                 13.20       0.00       0.11       0.66       4.47       4.54       9.00        0.01     0.01   0.682
  sub_90465                 13.20       0.00       0.11       0.35       5.87       2.42       8.29        0.01     0.01   0.628
  sub_90466                 13.20       0.00       0.11       0.61       4.67       4.23       8.90        0.01     0.01   0.674
  sub_90467                 13.20       0.00       0.11       0.30       6.10       2.07       8.17        0.01     0.02   0.619
  sub_90468                 13.20       0.00       0.11       0.58       4.81       4.01       8.83        0.01     0.01   0.669
  sub_90469                 13.20       0.00       0.11       0.35       5.87       2.42       8.29        0.01     0.01   0.628
  sub_90470                 13.20       0.00       0.11       0.60       4.72       4.15       8.87        0.01     0.01   0.672
  sub_90471                 13.20       0.00       0.11       0.50       5.19       3.44       8.63        0.01     0.01   0.654
  sub_90477                 13.20       0.00       0.11       0.34       5.91       2.35       8.26        0.01     0.01   0.626
  sub_90478                 13.20       0.00       0.11       0.39       5.66       2.73       8.39        0.01     0.01   0.636
  sub_90479                 13.20       0.00       0.11       0.93       3.19       6.47       9.66        0.01     0.01   0.732
  sub_90480                 13.20       0.00       0.11       0.46       5.36       3.19       8.55        0.01     0.01   0.648
  sub_90481                 13.20       0.00       0.11       0.58       4.79       4.04       8.84        0.01     0.01   0.670
  sub_90482                 13.20       0.00       0.11       0.61       4.68       4.21       8.89        0.01     0.01   0.674
  sub_90483                 13.20       0.00       0.11       1.22       1.87       8.47      10.33        0.01     0.01   0.783
  sub_90484                 13.20       0.00       0.11       0.51       5.13       3.53       8.66        0.01     0.01   0.656
  sub_90485                 13.20       0.00       0.11       0.92       3.26       6.36       9.62        0.01     0.01   0.729
  sub_90486                 13.20       0.00       0.11       0.68       4.35       4.72       9.06        0.01     0.01   0.687
  sub_90487                 13.20       0.00       0.11       0.58       4.79       4.04       8.84        0.02     0.02   0.670
  sub_90488                 13.20       0.00       0.11       0.71       4.20       4.93       9.14        0.01     0.01   0.692
  sub_90489                 13.20       0.00       0.11       0.36       5.82       2.49       8.31        0.01     0.01   0.630
  sub_90490                 13.20       0.00       0.11       0.32       5.99       2.23       8.22        0.01     0.01   0.623
  sub_90491                 13.20       0.00       0.11       0.38       5.73       2.63       8.36        0.01     0.01   0.633
  sub_90492                 13.20       0.00       0.11       0.51       5.13       3.54       8.67        0.01     0.01   0.657
  sub_90493                 13.20       0.00       0.11       0.35       5.87       2.41       8.28        0.01     0.01   0.628
  sub_90494                 13.20       0.00       0.11       0.33       5.94       2.31       8.25        0.01     0.01   0.625
  sub_90495                 13.20       0.00       0.11       0.52       5.08       3.61       8.69        0.01     0.01   0.659
  sub_90496                 13.20       0.00       0.11       0.35       5.87       2.41       8.28        0.01     0.01   0.628
  sub_90497                 13.20       0.00       0.11       0.31       6.04       2.16       8.20        0.01     0.01   0.621
  sub_90498                 13.20       0.00       0.11       0.59       4.78       4.07       8.84        0.01     0.02   0.670
  sub_90499                 13.20       0.00       0.11       1.02       2.78       7.09       9.87        0.01     0.01   0.748
  sub_90500                 13.20       0.00       0.11       0.75       4.03       5.20       9.23        0.01     0.01   0.699
  sub_90501                 13.20       0.00       0.11       0.33       5.96       2.28       8.24        0.01     0.01   0.624
  sub_90502                 13.20       0.00       0.11       0.65       4.51       4.47       8.98        0.01     0.01   0.681
  sub_90503                 13.20       0.00       0.11       0.36       5.81       2.51       8.32        0.01     0.01   0.630
  sub_90504                 13.20       0.00       0.11       0.34       5.92       2.33       8.26        0.01     0.01   0.626
  sub_90505                 13.20       0.00       0.11       0.39       5.66       2.73       8.39        0.01     0.01   0.636
  sub_90506                 13.20       0.00       0.11       0.43       5.49       2.98       8.48        0.01     0.01   0.642
  sub_90507                 13.20       0.00       0.11       0.45       5.40       3.12       8.52        0.01     0.01   0.646
  sub_90508                 13.20       0.00       0.11       0.44       5.46       3.03       8.49        0.01     0.01   0.644
  sub_90509                 13.20       0.00       0.11       0.90       3.33       6.26       9.59        0.01     0.01   0.726
  sub_90510                 13.20       0.00       0.11       0.41       5.60       2.82       8.42        0.01     0.01   0.638
  sub_90511                 13.20       0.00       0.11       0.70       4.27       4.84       9.11        0.00     0.00   0.690
  sub_90512                 13.20       0.00       0.11       0.46       5.34       3.21       8.55        0.01     0.01   0.648
  sub_90513                 13.20       0.00       0.11       0.32       6.01       2.20       8.21        0.02     0.02   0.622
  sub_90514                 13.20       0.00       0.11       0.42       5.54       2.92       8.46        0.01     0.01   0.641
  sub_90515                 13.20       0.00       0.11       0.74       4.08       5.12       9.20        0.01     0.01   0.697
  sub_90516                 13.20       0.00       0.11       1.03       2.73       7.16       9.89        0.01     0.01   0.749
  sub_90517                 13.20       0.00       0.11       0.75       4.04       5.17       9.22        0.01     0.01   0.699
  sub_90518                 13.20       0.00       0.11       0.22       6.44       1.55       7.99        0.00     0.00   0.606
  sub_90519                 13.20       0.00       0.11       0.83       3.66       5.75       9.42        0.02     0.02   0.713
  sub_90520                 13.20       0.00       0.11       0.81       3.76       5.60       9.36        0.01     0.01   0.710
  sub_90521                 13.20       0.00       0.11       0.48       5.28       3.30       8.58        0.01     0.01   0.651
  sub_90522                 13.20       0.00       0.11       0.38       5.72       2.64       8.36        0.00     0.00   0.634
  sub_90523                 13.20       0.00       0.11       0.47       5.30       3.28       8.58        0.01     0.01   0.650
  sub_90524                 13.20       0.00       0.11       0.80       3.82       5.51       9.33        0.02     0.02   0.707
  sub_90525                 13.20       0.00       0.11       1.00       2.88       6.94       9.82        0.02     0.02   0.744
  sub_90526                 13.20       0.00       0.11       0.80       3.78       5.57       9.35        0.01     0.01   0.709
  sub_90527                 13.20       0.00       0.11       1.04       2.71       7.20       9.90        0.01     0.01   0.751
  sub_90549                 13.20       0.00       0.11       0.75       4.01       5.22       9.24        0.01     0.01   0.700
  sub_90550                 13.20       0.00       0.11       0.00       7.47       0.00       7.47        0.00     0.00   0.566
  sub_90551                 13.20       0.00       0.11       0.88       3.43       6.11       9.54        0.01     0.01   0.723
  sub_90552                 13.20       0.00       0.11       0.36       5.81       2.50       8.31        0.02     0.03   0.630
  sub_90553                 13.20       0.00       0.11       0.85       3.60       5.85       9.45        0.01     0.01   0.716
  sub_90554                 13.20       0.00       0.11       0.80       3.78       5.57       9.35        0.01     0.01   0.709
  sub_90555                 13.20       0.00       0.11       0.98       2.97       6.80       9.77        0.01     0.01   0.740
  sub_90556                 13.20       0.00       0.11       1.08       2.54       7.45       9.99        0.01     0.01   0.757
  sub_90557                 13.20       0.00       0.11       0.55       4.93       3.84       8.77        0.01     0.01   0.664
  sub_90558                 13.20       0.00       0.11       0.56       4.90       3.88       8.78        0.01     0.02   0.665
  sub_90559                 13.20       0.00       0.11       0.88       3.45       6.08       9.53        0.01     0.01   0.722
  sub_90560                 13.20       0.00       0.11       0.72       4.15       5.02       9.17        0.01     0.02   0.695
  sub_90561                 13.20       0.00       0.11       0.64       4.51       4.46       8.98        0.01     0.01   0.680
  sub_90562                 13.20       0.00       0.11       0.60       4.74       4.13       8.87        0.01     0.01   0.672
  sub_90563                 13.20       0.00       0.11       0.56       4.89       3.90       8.79        0.01     0.01   0.666
  sub_90564                 13.20       0.00       0.11       0.49       5.24       3.37       8.61        0.01     0.01   0.652
  sub_90565                 13.20       0.00       0.11       0.69       4.29       4.81       9.09        0.01     0.01   0.689
  sub_90566                 13.20       0.00       0.11       0.71       4.20       4.93       9.14        0.01     0.01   0.692
  sub_90567                 13.20       0.00       0.11       0.85       3.58       5.87       9.46        0.01     0.01   0.716
  sub_90568                 13.20       0.00       0.11       0.00       7.47       0.00       7.47        0.00     0.00   0.566
  sub_90569                 13.20       0.00       0.11       0.78       3.89       5.41       9.30        0.01     0.01   0.705
  sub_90570                 13.20       0.00       0.11       0.93       3.20       6.45       9.65        0.01     0.01   0.731
  sub_90571                 13.20       0.00       0.11       0.50       5.18       3.46       8.64        0.01     0.01   0.655
  sub_90572                 13.20       0.00       0.11       0.50       5.19       3.44       8.63        0.01     0.01   0.654
  sub_90573                 13.20       0.00       0.11       0.33       5.94       2.31       8.25        0.01     0.01   0.625
  sub_90574                 13.20       0.00       0.11       0.38       5.74       2.62       8.35        0.01     0.01   0.633
  sub_90575                 13.20       0.00       0.11       0.62       4.63       4.28       8.92        0.01     0.01   0.676
  sub_90576                 13.20       0.00       0.11       0.67       4.39       4.66       9.04        0.01     0.01   0.685
  sub_90577                 13.20       0.00       0.11       0.65       4.48       4.52       9.00        0.01     0.01   0.682
  sub_90578                 13.20       0.00       0.11       0.57       4.86       3.94       8.80        0.01     0.01   0.667
  sub_90579                 13.20       0.00       0.11       0.48       5.29       3.30       8.58        0.01     0.01   0.650
  sub_90580                 13.20       0.00       0.11       0.99       2.94       6.85       9.79        0.01     0.01   0.742
  sub_90581                 13.20       0.00       0.11       0.80       3.82       5.52       9.34        0.01     0.01   0.707
  sub_90582                 13.20       0.00       0.11       0.63       4.60       4.33       8.93        0.01     0.01   0.677
  sub_90583                 13.20       0.00       0.11       0.78       3.89       5.42       9.30        0.01     0.01   0.705
  sub_90584                 13.20       0.00       0.11       0.44       5.46       3.04       8.49        0.01     0.01   0.644
  sub_90585                 13.20       0.00       0.11       0.44       5.47       3.02       8.49        0.01     0.01   0.643
  sub_90586                 13.20       0.00       0.11       0.48       5.27       3.33       8.59        0.01     0.01   0.651
  sub_90587                 13.20       0.00       0.11       0.53       5.04       3.67       8.71        0.01     0.01   0.660
  sub_90588                 13.20       0.00       0.11       0.36       5.80       2.53       8.32        0.01     0.01   0.631
  sub_90589                 13.20       0.00       0.11       0.60       4.74       4.13       8.86        0.01     0.01   0.672
  sub_90590                 13.20       0.00       0.11       0.57       4.84       3.97       8.81        0.01     0.01   0.668
  sub_90591                 13.20       0.00       0.11       0.39       5.68       2.71       8.38        0.01     0.01   0.635
  sub_90592                 13.20       0.00       0.11       0.38       5.73       2.62       8.36        0.01     0.01   0.633
  sub_90593                 13.20       0.00       0.11       0.51       5.12       3.55       8.67        0.01     0.01   0.657
  sub_90594                 13.20       0.00       0.11       0.63       4.57       4.38       8.95        0.01     0.01   0.678
  sub_90595                 13.20       0.00       0.11       0.64       4.54       4.42       8.96        0.01     0.01   0.679
  sub_90596                 13.20       0.00       0.11       0.36       5.81       2.51       8.32        0.01     0.01   0.630
  sub_90597                 13.20       0.00       0.11       0.85       3.58       5.88       9.46        0.01     0.01   0.717
  sub_90598                 13.20       0.00       0.11       0.84       3.60       5.84       9.44        0.01     0.01   0.716
  sub_90599                 13.20       0.00       0.11       0.62       4.63       4.29       8.92        0.00     0.00   0.676
  sub_90600                 13.20       0.00       0.11       0.56       4.89       3.90       8.79        0.00     0.01   0.666
  sub_90601                 13.20       0.00       0.11       0.94       3.16       6.51       9.67        0.01     0.01   0.733
  sub_90602                 13.20       0.00       0.11       0.70       4.27       4.84       9.11        0.01     0.01   0.690
  sub_90603                 13.20       0.00       0.11       0.89       3.40       6.15       9.55        0.01     0.01   0.724
  sub_90604                 13.20       0.00       0.11       0.59       4.75       4.11       8.86        0.01     0.01   0.671
  sub_90605                 13.20       0.00       0.11       0.58       4.79       4.04       8.84        0.01     0.02   0.670
  sub_90606                 13.20       0.00       0.11       0.66       4.46       4.54       9.01        0.01     0.01   0.682
  sub_90607                 13.20       0.00       0.11       0.68       4.35       4.72       9.06        0.01     0.01   0.687
  sub_90608                 13.20       0.00       0.11       0.81       3.73       5.65       9.38        0.01     0.01   0.711
  sub_90609                 13.20       0.00       0.11       0.96       3.08       6.63       9.71        0.01     0.01   0.736
  sub_90610                 13.20       0.00       0.11       0.93       3.21       6.43       9.64        0.01     0.01   0.731
  sub_90611                 13.20       0.00       0.11       0.83       3.67       5.75       9.41        0.01     0.01   0.713
  sub_90612                 13.20       0.00       0.11       0.94       3.17       6.49       9.67        0.01     0.01   0.732
  sub_90613                 13.20       0.00       0.11       1.00       2.89       6.92       9.81        0.01     0.01   0.743
  sub_90615                 13.20       0.00       0.11       0.85       3.57       5.89       9.46        0.02     0.02   0.717
  sub_90616                 13.20       0.00       0.11       0.44       5.47       3.02       8.49        0.01     0.02   0.643
  sub_90617                 13.20       0.00       0.11       0.56       4.88       3.91       8.79        0.01     0.01   0.666
  sub_90618                 13.20       0.00       0.11       0.36       5.80       2.52       8.32        0.02     0.02   0.630
  sub_90619                 13.20       0.00       0.11       0.06       7.20       0.40       7.60        0.00     0.01   0.576
  sub_90620                 13.20       0.00       0.11       0.38       5.72       2.65       8.36        0.01     0.01   0.634
  sub_90621                 13.20       0.00       0.11       0.81       3.77       5.59       9.36        0.02     0.02   0.709
  sub_90623                 13.20       0.00       0.11       0.69       4.30       4.79       9.09        0.02     0.02   0.689
  sub_90624                 13.20       0.00       0.11       0.67       4.41       4.62       9.03        0.00     0.00   0.684
  sub_90625                 13.20       0.00       0.11       0.57       4.86       3.94       8.80        0.01     0.01   0.667
  sub_90626                 13.20       0.00       0.11       0.51       5.15       3.51       8.66        0.01     0.01   0.656
  sub_90627                 13.20       0.00       0.11       0.90       3.35       6.22       9.57        0.01     0.01   0.726
  sub_90628                 13.20       0.00       0.11       0.74       4.10       5.10       9.19        0.02     0.02   0.697
  sub_90629                 13.20       0.00       0.11       0.85       3.55       5.92       9.47        0.01     0.01   0.718
  sub_90630                 13.20       0.00       0.11       0.36       5.82       2.49       8.31        0.01     0.01   0.630
  sub_90631                 13.20       0.00       0.11       0.56       4.89       3.90       8.79        0.01     0.01   0.666
  sub_90632                 13.20       0.00       0.11       0.58       4.79       4.04       8.84        0.01     0.01   0.670
  sub_90633                 13.20       0.00       0.11       0.36       5.83       2.48       8.31        0.01     0.01   0.630
  sub_90634                 13.20       0.00       0.11       0.54       4.98       3.76       8.74        0.01     0.01   0.662
  sub_90635                 13.20       0.00       0.11       0.80       3.82       5.51       9.33        0.01     0.01   0.707
  sub_90636                 13.20       0.00       0.11       0.60       4.71       4.17       8.88        0.01     0.01   0.673
  sub_90637                 13.20       0.00       0.11       0.56       4.91       3.87       8.78        0.01     0.01   0.665
  sub_90638                 13.20       0.00       0.11       0.33       5.97       2.26       8.23        0.01     0.01   0.624
  sub_90639                 13.20       0.00       0.11       0.85       3.57       5.90       9.47        0.01     0.01   0.717
  sub_90640                 13.20       0.00       0.11       0.43       5.51       2.96       8.47        0.01     0.01   0.642
  sub_90641                 13.20       0.00       0.11       0.53       5.06       3.65       8.70        0.01     0.01   0.659
  sub_90642                 13.20       0.00       0.11       0.66       4.42       4.60       9.02        0.01     0.01   0.684
  sub_90643                 13.20       0.00       0.11       0.43       5.52       2.95       8.47        0.02     0.02   0.641
  sub_90644                 13.20       0.00       0.11       0.37       5.78       2.55       8.33        0.01     0.01   0.631
  sub_90645                 13.20       0.00       0.11       0.52       5.08       3.61       8.69        0.00     0.00   0.659
  sub_90646                 13.20       0.00       0.11       0.98       2.99       6.77       9.76        0.01     0.01   0.740
  sub_90647                 13.20       0.00       0.11       1.35       1.30       9.32      10.62        0.01     0.01   0.805
  sub_90648                 13.20       0.00       0.11       0.35       5.84       2.45       8.30        0.01     0.01   0.629
  sub_90649                 13.20       0.00       0.11       0.52       5.07       3.62       8.69        0.01     0.01   0.659
  sub_90650                 13.20       0.00       0.11       0.51       5.11       3.56       8.67        0.02     0.02   0.657
  sub_90651                 13.20       0.00       0.11       0.42       5.53       2.93       8.46        0.01     0.01   0.641
  sub_90652                 13.20       0.00       0.11       0.54       5.01       3.71       8.72        0.01     0.01   0.661
  sub_90653                 13.20       0.00       0.11       0.65       4.48       4.52       9.00        0.01     0.01   0.682
  sub_90654                 13.20       0.00       0.11       0.75       4.04       5.17       9.22        0.00     0.00   0.699
  sub_90655                 13.20       0.00       0.11       0.48       5.25       3.35       8.60        0.01     0.01   0.652
  sub_90656                 13.20       0.00       0.11       0.86       3.53       5.96       9.49        0.01     0.01   0.719
  sub_90657                 13.20       0.00       0.11       0.90       3.33       6.26       9.59        0.01     0.01   0.727
  sub_90658                 13.20       0.00       0.11       0.52       5.10       3.58       8.68        0.01     0.01   0.658
  sub_90659                 13.20       0.00       0.11       1.18       2.06       8.18      10.24        0.01     0.01   0.776
  sub_90662                 13.20       0.00       0.11       0.60       4.70       4.18       8.88        0.00     0.00   0.673
  sub_90663                 13.20       0.00       0.11       0.82       3.69       5.71       9.40        0.02     0.02   0.712
  sub_90664                 13.20       0.00       0.11       1.63       0.00      11.29      11.29        0.00     0.00   0.856
  sub_90665                 13.20       0.00       0.11       0.76       3.98       5.28       9.25        0.01     0.01   0.701
  sub_90669                 13.20       0.00       0.11       0.62       4.64       4.27       8.91        0.00     0.00   0.675
  sub_90670                 13.20       0.00       0.11       0.45       5.40       3.13       8.53        0.01     0.01   0.646
  sub_90671                 13.20       0.00       0.11       0.50       5.19       3.44       8.63        0.00     0.00   0.654
  sub_90672                 13.20       0.00       0.11       0.66       4.45       4.57       9.01        0.01     0.01   0.683
  sub_90673                 13.20       0.00       0.11       0.84       3.62       5.82       9.44        0.01     0.01   0.715
  sub_90674                 13.20       0.00       0.11       0.24       6.35       1.69       8.04        0.01     0.01   0.609
  sub_90675                 13.20       0.00       0.11       0.37       5.77       2.57       8.34        0.01     0.01   0.632
  sub_90676                 13.20       0.00       0.11       0.55       4.96       3.80       8.75        0.01     0.01   0.663
  sub_90677                 13.20       0.00       0.11       0.80       3.80       5.55       9.35        0.01     0.01   0.708
  sub_90678                 13.20       0.00       0.11       0.72       4.18       4.97       9.15        0.01     0.01   0.693
  sub_90679                 13.20       0.00       0.11       0.79       3.85       5.46       9.32        0.01     0.01   0.706
  sub_90680                 13.20       0.00       0.11       0.45       5.39       3.14       8.53        0.01     0.01   0.646
  sub_90681                 13.20       0.00       0.11       0.80       3.79       5.55       9.35        0.01     0.01   0.708
  sub_90682                 13.20       0.00       0.11       0.72       4.17       4.99       9.16        0.01     0.01   0.694
  sub_90683                 13.20       0.00       0.11       1.19       2.01       8.24      10.26        0.01     0.01   0.777
  sub_90684                 13.20       0.00       0.11       0.27       6.25       1.84       8.09        0.00     0.00   0.613
  sub_90685                 13.20       0.00       0.11       0.19       6.58       1.34       7.92        0.00     0.00   0.600
  sub_90686                 13.20       0.00       0.11       0.72       4.18       4.97       9.15        0.00     0.00   0.693
  sub_90688                 13.20       0.00       0.11       0.54       4.98       3.76       8.74        0.01     0.01   0.662
  sub_90689                 13.20       0.00       0.11       0.87       3.48       6.02       9.51        0.00     0.00   0.720
  sub_90690                 13.20       0.00       0.11       0.68       4.34       4.72       9.07        0.00     0.01   0.687
  sub_90691                 13.20       0.00       0.11       0.59       4.78       4.06       8.84        0.01     0.01   0.670
  sub_90692                 13.20       0.00       0.11       0.51       5.14       3.51       8.66        0.00     0.00   0.656
  sub_90693                 13.20       0.00       0.11       0.96       3.07       6.64       9.72        0.00     0.00   0.736
  sub_90694                 13.20       0.00       0.11       1.31       1.45       9.11      10.55        0.00     0.00   0.800
  sub_90695                 13.20       0.00       0.11       0.73       4.11       5.08       9.19        0.00     0.00   0.696
  sub_90696                 13.20       0.00       0.11       0.82       3.73       5.65       9.38        0.00     0.00   0.711
  sub_90697                 13.20       0.00       0.11       0.84       3.63       5.81       9.43        0.00     0.00   0.715
  sub_90698                 13.20       0.00       0.11       0.95       3.13       6.56       9.69        0.00     0.00   0.734
  sub_90699                 13.20       0.00       0.11       1.12       2.32       7.79      10.10        0.00     0.00   0.766
  sub_90700                 13.20       0.00       0.11       0.31       6.04       2.15       8.20        0.00     0.00   0.621
  sub_90701                 13.20       0.00       0.11       0.29       6.15       1.99       8.14        0.00     0.00   0.617
  sub_90702                 13.20       0.00       0.11       0.33       5.97       2.26       8.23        0.00     0.00   0.624
  sub_90703                 13.20       0.00       0.11       0.84       3.63       5.80       9.43        0.01     0.01   0.715
  sub_90704                 13.20       0.00       0.11       0.81       3.78       5.58       9.36        0.01     0.01   0.709
  sub_90705                 13.20       0.00       0.11       0.87       3.48       6.03       9.51        0.01     0.01   0.721
  sub_90706                 13.20       0.00       0.11       0.60       4.74       4.13       8.87        0.00     0.00   0.672
  sub_90707                 13.20       0.00       0.11       0.40       5.65       2.75       8.40        0.00     0.00   0.636
  sub_90708                 13.20       0.00       0.11       0.97       3.03       6.71       9.74        0.01     0.01   0.738
  sub_90709                 13.20       0.00       0.11       0.72       4.18       4.97       9.15        0.01     0.01   0.693
  sub_90710                 13.20       0.00       0.11       0.94       3.18       6.48       9.66        0.01     0.01   0.732
  sub_90724                 13.20       0.00       0.11       0.98       2.99       6.77       9.76        0.00     0.00   0.740
  sub_90725                 13.20       0.00       0.11       1.63       0.00      11.29      11.29        0.00     0.00   0.856
  sub_90726                 13.20       0.00       0.11       1.63       0.00      11.29      11.29        0.00     0.00   0.856
  sub_90727                 13.20       0.00       0.11       1.63       0.00      11.29      11.29        0.00     0.00   0.856
  sub_90728                 13.20       0.00       0.11       1.63       0.00      11.29      11.29        0.01     0.00   0.856
  sub_90729                 13.20       0.00       0.11       1.63       0.00      11.29      11.29        0.00     0.00   0.856
  sub_90730                 13.20       0.00       0.11       1.63       0.00      11.29      11.29        0.01     0.00   0.856
  sub_90731                 13.20       0.00       0.11       1.63       0.00      11.29      11.29        0.01     0.01   0.856
  sub_90732                 13.20       0.00       0.11       1.63       0.00      11.29      11.29        0.00     0.00   0.856
  sub_90733                 13.20       0.00       0.11       0.48       5.27       3.32       8.59        0.00     0.00   0.651
  
  
  ******************
  Node Depth Summary
  ******************
  
  ---------------------------------------------------------------------------------
                                 Average  Maximum  Maximum  Time of Max    Reported
                                   Depth    Depth      HGL   Occurrence   Max Depth
  Node                 Type       Meters   Meters   Meters  days hr:min      Meters
  ---------------------------------------------------------------------------------
  j_9006F              JUNCTION     0.05     0.31    -0.05     0  02:05        0.30
  j_90334              JUNCTION     0.02     0.13    -0.08     0  02:00        0.13
  j_90335              JUNCTION     0.04     0.27    -0.14     0  02:05        0.27
  j_90336              JUNCTION     0.04     0.22     0.05     0  02:01        0.22
  j_90363              JUNCTION     0.07     0.26    -0.09     0  02:00        0.26
  j_90364              JUNCTION     0.07     0.25    -0.10     0  02:00        0.25
  j_90365              JUNCTION     0.07     0.26    -0.09     0  02:00        0.25
  j_90366              JUNCTION     0.03     0.18    -0.13     0  02:04        0.18
  j_90367              JUNCTION     0.07     0.36    -0.13     0  02:05        0.36
  j_90368              JUNCTION     0.01     0.17    -0.12     0  02:05        0.16
  j_90369              JUNCTION     0.02     0.16    -0.14     0  02:05        0.16
  j_90370              JUNCTION     0.08     0.37    -0.14     0  02:05        0.37
  j_90371              JUNCTION     0.09     0.41    -0.15     0  02:05        0.41
  j_90372              JUNCTION     0.01     0.11    -0.14     0  02:04        0.11
  j_90373              JUNCTION     0.06     0.33    -0.14     0  02:05        0.33
  j_90374              JUNCTION     0.01     0.14    -0.14     0  02:05        0.14
  j_90375              JUNCTION     0.03     0.20    -0.14     0  02:05        0.20
  j_90376              JUNCTION     0.01     0.08    -0.07     0  02:00        0.08
  j_90377              JUNCTION     0.01     0.08    -0.09     0  02:00        0.08
  j_90378              JUNCTION     0.03     0.18    -0.22     0  02:00        0.18
  j_90379              JUNCTION     0.02     0.12    -0.13     0  02:00        0.12
  j_90380              JUNCTION     0.02     0.14    -0.19     0  02:00        0.14
  j_90381              JUNCTION     0.05     0.21    -0.24     0  02:00        0.21
  j_90382              JUNCTION     0.13     0.61    -0.31     0  02:06        0.60
  j_90383              JUNCTION     0.12     0.55    -0.27     0  02:06        0.54
  j_90384              JUNCTION     0.07     0.24    -0.22     0  02:00        0.24
  j_90385              JUNCTION     0.02     0.15    -0.22     0  02:00        0.15
  j_90386              JUNCTION     0.02     0.12    -0.11     0  02:00        0.12
  j_90387              JUNCTION     0.01     0.09    -0.11     0  02:00        0.09
  j_90388              JUNCTION     0.06     0.23    -0.16     0  02:05        0.22
  j_90389              JUNCTION     0.10     0.42    -0.19     0  02:05        0.41
  j_90390              JUNCTION     0.08     0.40    -0.17     0  02:05        0.40
  j_90391              JUNCTION     0.06     0.24    -0.00     0  02:00        0.24
  j_90392              JUNCTION     0.07     0.27     0.02     0  02:00        0.27
  j_90393              JUNCTION     0.05     0.23     0.04     0  02:01        0.23
  j_90394              JUNCTION     0.03     0.16     0.06     0  02:01        0.16
  j_90395              JUNCTION     0.02     0.15     0.07     0  02:02        0.14
  j_90396              JUNCTION     0.01     0.09     0.07     0  02:02        0.09
  j_90397              JUNCTION     0.12     0.54    -0.23     0  02:05        0.53
  j_90398              JUNCTION     0.06     0.39    -0.23     0  02:05        0.39
  j_90399              JUNCTION     0.02     0.11    -0.20     0  02:00        0.11
  j_90400              JUNCTION     0.01     0.07    -0.19     0  02:00        0.07
  j_90401              JUNCTION     0.02     0.11    -0.20     0  02:00        0.10
  j_90402              JUNCTION     0.02     0.12    -0.24     0  02:00        0.11
  j_90403              JUNCTION     0.01     0.06    -0.19     0  02:00        0.06
  j_90404              JUNCTION     0.02     0.11    -0.19     0  02:00        0.11
  j_90405              JUNCTION     0.05     0.33    -0.23     0  02:05        0.33
  j_90406              JUNCTION     0.04     0.28    -0.22     0  02:05        0.27
  j_90407              JUNCTION     0.02     0.18    -0.23     0  02:05        0.18
  j_90408              JUNCTION     0.02     0.13    -0.19     0  02:00        0.13
  j_90427              JUNCTION     0.08     0.39    -0.04     0  02:05        0.39
  j_90428              JUNCTION     0.06     0.33    -0.04     0  02:05        0.33
  j_90430              JUNCTION     0.03     0.16    -1.41     0  02:06        0.16
  j_90433              JUNCTION     0.04     0.17    -0.20     0  02:05        0.17
  j_90434              JUNCTION     0.07     0.23    -0.20     0  02:05        0.23
  j_90435              JUNCTION     0.03     0.14    -0.23     0  02:05        0.14
  j_90436              JUNCTION     0.05     0.24    -0.22     0  02:00        0.23
  j_90437              JUNCTION     0.16     0.67    -0.69     0  02:06        0.66
  j_90438              JUNCTION     0.20     0.77    -0.58     0  02:06        0.76
  j_90439              JUNCTION     0.02     0.11    -0.10     0  02:00        0.11
  j_90440              JUNCTION     0.02     0.12    -0.04     0  02:05        0.12
  j_90441              JUNCTION     0.01     0.07    -0.06     0  02:00        0.07
  j_90442              JUNCTION     0.14     0.51    -0.13     0  02:05        0.51
  j_90443              JUNCTION     0.20     0.80    -0.50     0  02:06        0.79
  j_90444              JUNCTION     0.14     0.68    -0.43     0  02:06        0.67
  j_90445              JUNCTION     0.03     0.18    -0.25     0  02:00        0.18
  j_90446              JUNCTION     0.03     0.15    -0.21     0  02:00        0.15
  j_90447              JUNCTION     0.02     0.13    -0.12     0  02:00        0.13
  j_90448              JUNCTION     0.02     0.12    -0.15     0  02:00        0.12
  j_90449              JUNCTION     0.04     0.16    -0.32     0  02:00        0.16
  j_90450              JUNCTION     0.03     0.13    -0.34     0  02:00        0.13
  j_90451              JUNCTION     0.13     0.63    -0.39     0  02:06        0.61
  j_90452              JUNCTION     0.03     0.15    -0.27     0  02:00        0.15
  j_90453              JUNCTION     0.13     0.62    -0.34     0  02:06        0.60
  j_90454              JUNCTION     0.03     0.17    -0.30     0  02:00        0.17
  j_90455              JUNCTION     0.04     0.20    -0.34     0  02:01        0.19
  j_90456              JUNCTION     0.06     0.29    -0.37     0  02:01        0.29
  j_90457              JUNCTION     0.08     0.34    -0.42     0  02:05        0.34
  j_90459              JUNCTION     0.12     0.58    -0.47     0  02:06        0.57
  j_90460              JUNCTION     0.09     0.51    -0.45     0  02:06        0.50
  j_90461              JUNCTION     0.15     0.63    -0.45     0  02:06        0.62
  j_90462              JUNCTION     0.12     0.57    -0.41     0  02:06        0.56
  j_90463              JUNCTION     0.07     0.37    -0.36     0  02:06        0.36
  j_90464              JUNCTION     0.05     0.28    -0.35     0  02:05        0.27
  j_90465              JUNCTION     0.04     0.20    -0.34     0  02:05        0.19
  j_90466              JUNCTION     0.03     0.16    -0.28     0  02:00        0.15
  j_90467              JUNCTION     0.04     0.21    -0.21     0  02:00        0.21
  j_90468              JUNCTION     0.06     0.28    -0.24     0  02:00        0.28
  j_90469              JUNCTION     0.05     0.27    -0.29     0  02:05        0.27
  j_90470              JUNCTION     0.07     0.36    -0.31     0  02:05        0.36
  j_90471              JUNCTION     0.07     0.38    -0.32     0  02:05        0.38
  j_90477              JUNCTION     0.04     0.25    -0.06     0  02:05        0.25
  j_90478              JUNCTION     0.07     0.35    -0.06     0  02:06        0.33
  j_90479              JUNCTION     0.04     0.26    -0.06     0  02:06        0.24
  j_90480              JUNCTION     0.03     0.20    -0.05     0  02:05        0.19
  j_90481              JUNCTION     0.07     0.34    -0.06     0  02:06        0.34
  j_90482              JUNCTION     0.09     0.39    -0.06     0  02:06        0.38
  j_90483              JUNCTION     0.04     0.23    -0.05     0  02:05        0.22
  j_90484              JUNCTION     0.02     0.16    -0.04     0  02:05        0.16
  j_90485              JUNCTION     0.05     0.29    -0.04     0  02:05        0.29
  j_90486              JUNCTION     0.09     0.42    -0.04     0  02:05        0.42
  j_90487              JUNCTION     0.10     0.46    -0.06     0  02:04        0.46
  j_90488              JUNCTION     0.13     0.50    -0.10     0  02:05        0.50
  j_90489              JUNCTION     0.02     0.15    -0.08     0  02:06        0.14
  j_90490              JUNCTION     0.04     0.24    -0.07     0  02:05        0.23
  j_90491              JUNCTION     0.12     0.48    -0.06     0  02:05        0.47
  j_90492              JUNCTION     0.14     0.55    -0.07     0  02:06        0.54
  j_90493              JUNCTION     0.04     0.24    -0.08     0  02:06        0.23
  j_90494              JUNCTION     0.17     0.89     0.15     0  01:59        0.65
  j_90495              JUNCTION     0.17     0.64    -0.07     0  02:06        0.63
  j_90496              JUNCTION     0.05     0.25    -0.07     0  02:07        0.25
  j_90497              JUNCTION     0.02     0.10    -0.08     0  02:05        0.10
  j_90498              JUNCTION     0.08     0.39    -0.09     0  02:05        0.39
  j_90499              JUNCTION     0.09     0.39    -0.08     0  02:05        0.39
  j_90500              JUNCTION     0.06     0.31    -0.07     0  02:05        0.30
  j_90501              JUNCTION     0.04     0.22    -0.05     0  02:05        0.21
  j_90502              JUNCTION     0.03     0.18    -0.05     0  02:05        0.18
  j_90503              JUNCTION     0.03     0.18    -0.05     0  02:06        0.18
  j_90504              JUNCTION     0.06     0.23    -0.05     0  02:05        0.23
  j_90505              JUNCTION     0.10     0.44    -0.06     0  02:05        0.43
  j_90506              JUNCTION     0.11     0.46    -0.05     0  02:05        0.45
  j_90507              JUNCTION     0.06     0.32    -0.05     0  02:05        0.32
  j_90508              JUNCTION     0.08     0.39    -0.06     0  02:05        0.39
  j_90509              JUNCTION     0.03     0.19    -0.06     0  02:05        0.19
  j_90510              JUNCTION     0.05     0.30    -0.01     0  02:05        0.29
  j_90511              JUNCTION     0.15     0.58    -0.01     0  02:05        0.58
  j_90512              JUNCTION     0.12     0.53    -0.01     0  02:05        0.53
  j_90513              JUNCTION     0.04     0.23    -0.03     0  02:05        0.23
  j_90514              JUNCTION     0.04     0.24    -0.08     0  02:05        0.24
  j_90515              JUNCTION     0.07     0.31    -0.10     0  02:05        0.30
  j_90516              JUNCTION     0.08     0.25    -0.19     0  02:05        0.25
  j_90517              JUNCTION     0.11     0.55    -0.37     0  02:06        0.54
  j_90518              JUNCTION     0.12     0.53    -0.35     0  02:05        0.53
  j_90519              JUNCTION     0.10     0.50    -0.33     0  02:05        0.50
  j_90520              JUNCTION     0.05     0.25    -0.10     0  02:00        0.25
  j_90521              JUNCTION     0.02     0.15    -0.09     0  02:00        0.15
  j_90522              JUNCTION     0.04     0.18    -0.09     0  02:00        0.18
  j_90523              JUNCTION     0.02     0.15    -0.05     0  02:00        0.15
  j_90524              JUNCTION     0.09     0.46     0.01     0  02:04        0.46
  j_90525              JUNCTION     0.07     0.37     0.02     0  02:05        0.37
  j_90526              JUNCTION     0.05     0.28     0.02     0  02:05        0.28
  j_90527              JUNCTION     0.03     0.20     0.02     0  02:05        0.20
  j_90549              JUNCTION     0.03     0.20    -0.21     0  02:00        0.20
  j_90550              JUNCTION     0.24     0.73    -0.50     0  02:10        0.73
  j_90551              JUNCTION     0.01     0.07     0.12     0  01:58        0.07
  j_90553              JUNCTION     0.08     0.30    -0.08     0  02:06        0.30
  j_90554              JUNCTION     0.05     0.26    -0.08     0  02:06        0.26
  j_90555              JUNCTION     0.03     0.17    -0.07     0  02:06        0.16
  j_90556              JUNCTION     0.07     0.29    -0.08     0  02:06        0.29
  j_90557              JUNCTION     0.08     0.30    -0.08     0  02:07        0.30
  j_90558              JUNCTION     0.16     0.63    -0.08     0  02:08        0.62
  j_90559              JUNCTION     0.11     0.50    -0.08     0  02:08        0.50
  j_90560              JUNCTION     0.10     0.50    -0.06     0  02:05        0.49
  j_90561              JUNCTION     0.06     0.31    -0.07     0  02:06        0.30
  j_90562              JUNCTION     0.09     0.38    -0.07     0  02:06        0.37
  j_90563              JUNCTION     0.15     0.60    -0.10     0  02:09        0.60
  j_90564              JUNCTION     0.19     0.71    -0.10     0  02:08        0.71
  j_90565              JUNCTION     0.04     0.24    -0.10     0  02:09        0.24
  j_90566              JUNCTION     0.02     0.10    -0.10     0  02:09        0.10
  j_90567              JUNCTION     0.02     0.09     0.12     0  01:58        0.09
  j_90568              JUNCTION     0.23     0.75    -0.36     0  02:10        0.75
  j_90569              JUNCTION     0.06     0.22    -0.10     0  02:09        0.22
  j_90570              JUNCTION     0.01     0.07    -0.01     0  01:58        0.07
  j_90571              JUNCTION     0.06     0.32    -0.11     0  02:08        0.32
  j_90572              JUNCTION     0.21     0.75    -0.11     0  02:08        0.75
  j_90573              JUNCTION     0.04     0.24    -0.10     0  02:08        0.23
  j_90574              JUNCTION     0.19     0.70    -0.10     0  01:59        0.69
  j_90575              JUNCTION     0.24     0.78    -0.13     0  02:08        0.78
  j_90576              JUNCTION     0.21     0.73    -0.19     0  02:09        0.73
  j_90577              JUNCTION     0.22     0.76    -0.22     0  02:10        0.76
  j_90578              JUNCTION     0.21     0.73    -0.22     0  02:10        0.73
  j_90579              JUNCTION     0.17     0.66    -0.22     0  02:07        0.66
  j_90580              JUNCTION     0.02     0.10    -0.03     0  02:00        0.10
  j_90581              JUNCTION     0.03     0.15    -0.09     0  02:00        0.15
  j_90582              JUNCTION     0.03     0.15    -0.09     0  02:00        0.15
  j_90583              JUNCTION     0.04     0.20    -0.11     0  02:10        0.20
  j_90584              JUNCTION     0.05     0.26    -0.09     0  02:09        0.26
  j_90585              JUNCTION     0.20     0.72    -0.11     0  02:08        0.72
  j_90586              JUNCTION     0.20     0.72    -0.10     0  02:09        0.72
  j_90587              JUNCTION     0.19     0.70    -0.09     0  02:05        0.70
  j_90588              JUNCTION     0.05     0.28    -0.08     0  02:05        0.27
  j_90589              JUNCTION     0.03     0.21    -0.07     0  02:05        0.21
  j_90590              JUNCTION     0.03     0.19    -0.06     0  02:05        0.19
  j_90591              JUNCTION     0.14     0.66     0.05     0  01:59        0.59
  j_90592              JUNCTION     0.16     0.63    -0.04     0  02:05        0.62
  j_90593              JUNCTION     0.20     0.71    -0.08     0  02:05        0.71
  j_90594              JUNCTION     0.16     0.63    -0.07     0  02:06        0.63
  j_90595              JUNCTION     0.05     0.27    -0.07     0  02:06        0.26
  j_90596              JUNCTION     0.04     0.25    -0.07     0  02:06        0.25
  j_90597              JUNCTION     0.04     0.21    -0.07     0  02:05        0.21
  j_90598              JUNCTION     0.03     0.18    -0.07     0  02:06        0.18
  j_90599              JUNCTION     0.05     0.22    -0.07     0  02:05        0.22
  j_90600              JUNCTION     0.03     0.15    -0.07     0  02:05        0.15
  j_90601              JUNCTION     0.02     0.13    -0.04     0  02:00        0.13
  j_90602              JUNCTION     0.04     0.22    -0.05     0  02:07        0.21
  j_90603              JUNCTION     0.04     0.24    -0.05     0  02:07        0.23
  j_90604              JUNCTION     0.06     0.30    -0.06     0  02:07        0.30
  j_90605              JUNCTION     0.09     0.40    -0.06     0  02:08        0.40
  j_90606              JUNCTION     0.09     0.37    -0.06     0  02:08        0.37
  j_90607              JUNCTION     0.07     0.32    -0.06     0  02:08        0.32
  j_90608              JUNCTION     0.06     0.29    -0.05     0  02:08        0.28
  j_90609              JUNCTION     0.02     0.12    -0.05     0  02:08        0.11
  j_90610              JUNCTION     0.03     0.17    -0.05     0  02:07        0.17
  j_90611              JUNCTION     0.04     0.21    -0.06     0  02:06        0.21
  j_90612              JUNCTION     0.03     0.17    -0.04     0  02:05        0.16
  j_90613              JUNCTION     0.02     0.12     0.02     0  02:05        0.11
  j_90615              JUNCTION     0.02     0.13    -0.16     0  01:58        0.13
  j_90616              JUNCTION     0.03     0.17    -0.15     0  02:00        0.17
  j_90617              JUNCTION     0.01     0.10    -0.13     0  02:00        0.09
  j_90618              JUNCTION     0.04     0.19    -0.18     0  02:00        0.19
  j_90619              JUNCTION     0.23     0.76    -0.24     0  02:10        0.76
  j_90620              JUNCTION     0.26     0.82    -0.23     0  02:10        0.82
  j_90621              JUNCTION     0.22     0.76    -0.22     0  02:10        0.76
  j_90623              JUNCTION     0.19     0.70    -0.20     0  02:10        0.70
  j_90624              JUNCTION     0.14     0.59    -0.20     0  02:10        0.59
  j_90625              JUNCTION     0.11     0.53    -0.17     0  02:10        0.52
  j_90626              JUNCTION     0.16     0.63    -0.19     0  02:10        0.63
  j_90627              JUNCTION     0.19     0.69    -0.19     0  02:10        0.69
  j_90628              JUNCTION     0.05     0.23    -0.18     0  02:10        0.23
  j_90629              JUNCTION     0.03     0.18    -0.17     0  02:10        0.18
  j_90630              JUNCTION     0.03     0.14    -0.05     0  02:00        0.14
  j_90631              JUNCTION     0.05     0.25    -0.17     0  02:10        0.25
  j_90632              JUNCTION     0.06     0.28    -0.17     0  02:10        0.28
  j_90633              JUNCTION     0.06     0.31    -0.17     0  02:10        0.31
  j_90634              JUNCTION     0.21     0.71    -0.17     0  02:10        0.71
  j_90635              JUNCTION     0.12     0.53    -0.17     0  02:10        0.53
  j_90636              JUNCTION     0.09     0.40    -0.17     0  02:10        0.40
  j_90637              JUNCTION     0.13     0.55    -0.16     0  02:11        0.55
  j_90638              JUNCTION     0.07     0.32    -0.16     0  02:10        0.32
  j_90639              JUNCTION     0.05     0.25    -0.15     0  02:10        0.24
  j_90640              JUNCTION     0.03     0.13    -0.16     0  02:10        0.13
  j_90641              JUNCTION     0.16     0.62    -0.22     0  02:07        0.61
  j_90642              JUNCTION     0.11     0.51    -0.22     0  02:07        0.50
  j_90643              JUNCTION     0.11     0.51    -0.21     0  02:06        0.49
  j_90644              JUNCTION     0.02     0.13    -0.02     0  02:00        0.13
  j_90645              JUNCTION     0.01     0.05     0.12     0  02:00        0.05
  j_90646              JUNCTION     0.04     0.17     0.07     0  02:00        0.17
  j_90647              JUNCTION     0.01     0.08     0.11     0  02:00        0.08
  j_90648              JUNCTION     0.03     0.16    -0.13     0  02:00        0.16
  j_90649              JUNCTION     0.03     0.16    -0.05     0  02:00        0.16
  j_90650              JUNCTION     0.06     0.25    -0.13     0  02:10        0.25
  j_90651              JUNCTION     0.05     0.27    -0.17     0  02:10        0.27
  j_90652              JUNCTION     0.05     0.26    -0.16     0  02:10        0.25
  j_90653              JUNCTION     0.01     0.08    -0.16     0  02:00        0.08
  j_90654              JUNCTION     0.12     0.49    -0.11     0  02:10        0.49
  j_90655              JUNCTION     0.14     0.54    -0.12     0  02:11        0.54
  j_90656              JUNCTION     0.15     0.55    -0.14     0  02:10        0.55
  j_90657              JUNCTION     0.01     0.08     0.31     0  02:00        0.08
  j_90658              JUNCTION     0.02     0.12     0.25     0  02:00        0.12
  j_90659              JUNCTION     0.02     0.14     0.16     0  02:00        0.14
  j_90662              JUNCTION     0.02     0.11    -0.21     0  02:00        0.11
  j_90663              JUNCTION     0.07     0.35    -0.08     0  02:08        0.35
  j_90664              JUNCTION     0.02     0.14    -0.13     0  02:00        0.14
  j_90665              JUNCTION     0.21     0.74    -0.23     0  02:10        0.74
  j_90669              JUNCTION     0.09     0.35     0.12     0  02:05        0.35
  j_90670              JUNCTION     0.11     0.37     0.12     0  02:05        0.37
  j_90671              JUNCTION     0.11     0.38     0.12     0  02:05        0.38
  j_90672              JUNCTION     0.08     0.37    -0.09     0  02:07        0.37
  j_90673              JUNCTION     0.11     0.44    -0.09     0  02:07        0.44
  j_90674              JUNCTION     0.12     0.49    -0.11     0  02:07        0.49
  j_90675              JUNCTION     0.08     0.32     0.10     0  02:05        0.32
  j_90676              JUNCTION     0.10     0.36     0.12     0  02:04        0.36
  j_90677              JUNCTION     0.13     0.41     0.12     0  02:04        0.41
  j_90678              JUNCTION     0.04     0.22     0.12     0  02:03        0.22
  j_90679              JUNCTION     0.02     0.15     0.13     0  02:03        0.15
  j_90680              JUNCTION     0.08     0.35     0.05     0  02:05        0.35
  j_90681              JUNCTION     0.10     0.37    -0.01     0  02:05        0.37
  j_90682              JUNCTION     0.01     0.06     0.03     0  02:00        0.06
  j_90683              JUNCTION     0.09     0.39    -0.06     0  02:05        0.39
  j_90684              JUNCTION     0.06     0.30    -0.06     0  02:05        0.30
  j_90685              JUNCTION     0.01     0.06     0.17     0  02:00        0.06
  j_90686              JUNCTION     0.07     0.35    -0.05     0  02:06        0.34
  j_90688              JUNCTION     0.01     0.07     0.52     0  02:00        0.07
  j_90689              JUNCTION     0.03     0.16    -0.14     0  02:00        0.16
  j_90690              JUNCTION     0.03     0.15    -0.10     0  02:00        0.14
  j_90691              JUNCTION     0.02     0.09     0.19     0  02:00        0.08
  j_90692              JUNCTION     0.01     0.06     0.26     0  02:00        0.06
  j_90693              JUNCTION     0.01     0.05     0.08     0  02:00        0.05
  j_90694              JUNCTION     0.01     0.07     0.13     0  02:00        0.07
  j_90695              JUNCTION     0.01     0.06     0.56     0  02:00        0.06
  j_90696              JUNCTION     0.02     0.09     0.09     0  02:00        0.09
  j_90697              JUNCTION     0.02     0.12     0.05     0  02:00        0.12
  j_90698              JUNCTION     0.02     0.13     0.01     0  02:00        0.13
  j_90699              JUNCTION     0.03     0.14    -0.04     0  02:00        0.13
  j_90700              JUNCTION     0.01     0.04     0.54     0  02:00        0.04
  j_90701              JUNCTION     0.01     0.04     0.54     0  02:00        0.04
  j_90702              JUNCTION     0.01     0.03     0.53     0  02:00        0.03
  j_90703              JUNCTION     0.09     0.42    -0.06     0  02:05        0.41
  j_90704              JUNCTION     0.03     0.17    -0.05     0  02:05        0.17
  j_90705              JUNCTION     0.03     0.21    -0.05     0  02:05        0.20
  j_90706              JUNCTION     0.12     0.53    -0.01     0  02:05        0.53
  j_90707              JUNCTION     0.07     0.37    -0.01     0  02:05        0.37
  j_90708              JUNCTION     0.02     0.11    -0.00     0  02:05        0.10
  j_90709              JUNCTION     0.03     0.21     0.01     0  02:05        0.20
  j_90710              JUNCTION     0.02     0.11     0.06     0  02:00        0.11
  j_90724              JUNCTION     0.11     0.38     0.12     0  02:05        0.38
  j_90725              JUNCTION     0.02     0.13     0.13     0  02:05        0.13
  j_90726              JUNCTION     0.01     0.08     0.13     0  02:05        0.07
  j_90727              JUNCTION     0.01     0.03     0.13     0  02:00        0.03
  j_90728              JUNCTION     0.01     0.07     0.13     0  02:00        0.07
  j_90729              JUNCTION     0.01     0.04     0.27     0  02:00        0.04
  j_90730              JUNCTION     0.04     0.21     0.13     0  02:05        0.20
  j_90731              JUNCTION     0.01     0.07     0.17     0  02:00        0.07
  j_90732              JUNCTION     0.01     0.03     0.18     0  02:00        0.03
  j_90733              JUNCTION     0.05     0.26     0.12     0  02:05        0.26
  j_91272              JUNCTION     0.00     0.00     0.17     0  00:00        0.00
  j_91273              JUNCTION     0.00     0.00     0.47     0  00:00        0.00
  j_91274              JUNCTION     0.00     0.00     0.23     0  00:00        0.00
  j_91275              JUNCTION     0.00     0.00     0.47     0  00:00        0.00
  j_91276              JUNCTION     0.00     0.00     0.28     0  00:00        0.00
  j_91277              JUNCTION     0.00     0.00     0.51     0  00:00        0.00
  j_91278              JUNCTION     0.00     0.00     0.35     0  00:00        0.00
  j_91279              JUNCTION     0.00     0.00     0.50     0  00:00        0.00
  j_91292              JUNCTION     0.00     0.00    -0.01     0  00:00        0.00
  j_91293              JUNCTION     0.01     0.09    -0.14     0  02:05        0.09
  j_91294              JUNCTION     0.00     0.00     0.31     0  00:00        0.00
  j_90552              OUTFALL      0.00     0.00    -1.29     0  00:00        0.00
  j_90431              OUTFALL      0.03     0.16    -1.45     0  02:06        0.16
  
  
  *******************
  Node Inflow Summary
  *******************
  
  -------------------------------------------------------------------------------------------------
                                  Maximum  Maximum                  Lateral       Total        Flow
                                  Lateral    Total  Time of Max      Inflow      Inflow     Balance
                                   Inflow   Inflow   Occurrence      Volume      Volume       Error
  Node                 Type           CMS      CMS  days hr:min    10^6 ltr    10^6 ltr     Percent
  -------------------------------------------------------------------------------------------------
  j_9006F              JUNCTION     0.004    0.008     0  02:00     0.00341     0.00377       0.000
  j_90334              JUNCTION     0.011    0.011     0  02:00      0.0126      0.0126       0.000
  j_90335              JUNCTION     0.018    0.018     0  02:00      0.0159      0.0159       0.000
  j_90336              JUNCTION     0.003    0.011     0  02:02     0.00312      0.0139       0.000
  j_90363              JUNCTION     0.021    0.021     0  02:00      0.0178      0.0178       0.000
  j_90364              JUNCTION     0.005    0.038     0  01:59     0.00567      0.0371       0.099
  j_90365              JUNCTION     0.001    0.002     0  01:58     0.00102     0.00116       4.795
  j_90366              JUNCTION     0.007    0.007     0  02:00     0.00622     0.00622       0.000
  j_90367              JUNCTION     0.006    0.047     0  01:59     0.00627      0.0496       0.139
  j_90368              JUNCTION     0.000    0.002     0  01:59           0    0.000319       0.975
  j_90369              JUNCTION     0.015    0.015     0  02:00      0.0146      0.0146       0.000
  j_90370              JUNCTION     0.007    0.039     0  01:58     0.00621      0.0366      -0.353
  j_90371              JUNCTION     0.009    0.084     0  02:04     0.00785       0.115       0.002
  j_90372              JUNCTION     0.004    0.004     0  02:00     0.00375     0.00376       0.000
  j_90373              JUNCTION     0.007    0.018     0  02:04     0.00527      0.0207      -0.072
  j_90374              JUNCTION     0.000    0.005     0  02:01           0      0.0013       0.000
  j_90375              JUNCTION     0.008    0.013     0  02:00     0.00699      0.0125       0.143
  j_90376              JUNCTION     0.001    0.005     0  02:00     0.00124     0.00457       0.000
  j_90377              JUNCTION     0.007    0.011     0  02:00     0.00587      0.0105      -0.495
  j_90378              JUNCTION     0.007    0.018     0  02:00     0.00666      0.0173       0.000
  j_90379              JUNCTION     0.011    0.011     0  02:00      0.0106      0.0106      -0.169
  j_90380              JUNCTION     0.012    0.012     0  02:00      0.0118      0.0118       0.000
  j_90381              JUNCTION     0.007    0.020     0  02:00     0.00712       0.019       0.663
  j_90382              JUNCTION     0.009    0.182     0  02:05     0.00832        0.28      -0.019
  j_90383              JUNCTION     0.008    0.168     0  02:05       0.007       0.252      -0.024
  j_90384              JUNCTION     0.004    0.021     0  02:00     0.00428      0.0205       0.525
  j_90385              JUNCTION     0.006    0.017     0  02:00      0.0055      0.0162       0.083
  j_90386              JUNCTION     0.011    0.011     0  02:00      0.0107      0.0107      -0.148
  j_90387              JUNCTION     0.007    0.007     0  02:00     0.00667     0.00667       0.000
  j_90388              JUNCTION     0.004    0.011     0  02:00     0.00408      0.0108       2.038
  j_90389              JUNCTION     0.006    0.123     0  02:05     0.00551       0.175       0.000
  j_90390              JUNCTION     0.003    0.091     0  02:04     0.00311       0.128      -0.024
  j_90391              JUNCTION     0.004    0.030     0  02:00     0.00452      0.0409       0.015
  j_90392              JUNCTION     0.008    0.027     0  02:00     0.00852      0.0364       0.113
  j_90393              JUNCTION     0.013    0.022     0  02:00      0.0139      0.0278      -0.079
  j_90394              JUNCTION     0.004    0.009     0  02:00     0.00439      0.0108      -0.068
  j_90395              JUNCTION     0.005    0.007     0  01:59     0.00468     0.00638      -0.120
  j_90396              JUNCTION     0.002    0.002     0  01:58     0.00172     0.00172       0.605
  j_90397              JUNCTION     0.006    0.151     0  02:05       0.006       0.225      -0.002
  j_90398              JUNCTION     0.007    0.037     0  01:59     0.00683      0.0444      -0.262
  j_90399              JUNCTION     0.007    0.010     0  02:00     0.00659      0.0095       1.593
  j_90400              JUNCTION     0.005    0.005     0  01:59     0.00427     0.00495      -0.185
  j_90401              JUNCTION     0.007    0.009     0  02:00      0.0064     0.00846      -0.081
  j_90402              JUNCTION     0.007    0.009     0  02:00     0.00644     0.00762       0.000
  j_90403              JUNCTION     0.004    0.004     0  02:00     0.00401     0.00401      -0.225
  j_90404              JUNCTION     0.007    0.008     0  02:00     0.00656     0.00871       1.498
  j_90405              JUNCTION     0.007    0.026     0  02:00     0.00712      0.0283       0.025
  j_90406              JUNCTION     0.007    0.021     0  02:00     0.00683       0.021      -0.553
  j_90407              JUNCTION     0.005    0.006     0  02:00     0.00529     0.00562      -0.201
  j_90408              JUNCTION     0.014    0.014     0  02:00      0.0132      0.0132      -0.128
  j_90427              JUNCTION     0.015    0.026     0  02:00      0.0141      0.0291       0.000
  j_90428              JUNCTION     0.008    0.017     0  02:00     0.00825       0.015       0.144
  j_90430              JUNCTION     0.005    0.644     0  02:06     0.00408        1.03       0.006
  j_90433              JUNCTION     0.002    0.002     0  02:00     0.00225     0.00225       0.000
  j_90434              JUNCTION     0.005    0.013     0  01:59     0.00456      0.0128       3.643
  j_90435              JUNCTION     0.008    0.016     0  02:00     0.00738      0.0197       0.043
  j_90436              JUNCTION     0.005    0.048     0  02:00     0.00404      0.0524       0.000
  j_90437              JUNCTION     0.011    0.642     0  02:05     0.00936        1.03       0.024
  j_90438              JUNCTION     0.008    0.585     0  02:05     0.00768       0.947       0.016
  j_90439              JUNCTION     0.005    0.017     0  02:00     0.00442      0.0183       0.000
  j_90440              JUNCTION     0.014    0.014     0  02:00      0.0137      0.0137      -0.123
  j_90441              JUNCTION     0.007    0.007     0  02:00     0.00691     0.00691      -0.052
  j_90442              JUNCTION     0.015    0.130     0  02:05      0.0164       0.217       0.058
  j_90443              JUNCTION     0.021    0.568     0  02:05      0.0214       0.919      -0.000
  j_90444              JUNCTION     0.008    0.227     0  02:05      0.0076       0.368       0.010
  j_90445              JUNCTION     0.007    0.025     0  02:00      0.0072      0.0244       0.001
  j_90446              JUNCTION     0.007    0.018     0  02:00     0.00663      0.0172       0.086
[...]
  c_905751                1.00   0.38  0.01  0.00  0.61  0.00  0.00  0.00  0.22  0.00
  c_905752                1.00   0.38  0.00  0.00  0.62  0.00  0.00  0.00  0.02  0.00
  c_905761                1.00   0.38  0.01  0.00  0.61  0.00  0.00  0.00  0.06  0.00
  c_905771                1.00   0.38  0.00  0.00  0.62  0.00  0.00  0.00  0.15  0.00
  c_905781                1.00   0.38  0.00  0.00  0.62  0.00  0.00  0.00  0.09  0.00
  c_905791                1.00   0.38  0.01  0.00  0.61  0.00  0.00  0.00  0.19  0.00
  c_905811                1.00   0.43  0.13  0.00  0.43  0.00  0.00  0.00  0.57  0.00
  c_905821                1.00   0.38  0.00  0.00  0.62  0.00  0.00  0.00  0.00  0.00
  c_905831                1.00   0.38  0.20  0.00  0.43  0.00  0.00  0.00  0.51  0.00
  c_905841                1.00   0.38  0.06  0.00  0.57  0.00  0.00  0.00  0.49  0.00
  c_905851                1.00   0.38  0.00  0.00  0.62  0.00  0.00  0.00  0.14  0.00
  c_905852                1.00   0.38  0.00  0.00  0.27  0.00  0.00  0.35  0.11  0.00
  c_905861                1.00   0.38  0.00  0.00  0.62  0.00  0.00  0.00  0.00  0.00
  c_905862                1.00   0.38  0.00  0.00  0.25  0.00  0.00  0.37  0.06  0.00
  c_905871                1.00   0.38  0.00  0.00  0.62  0.00  0.00  0.00  0.14  0.00
  c_905881                1.00   0.38  0.00  0.00  0.31  0.00  0.00  0.32  0.10  0.00
  c_905891                1.00   0.38  0.18  0.00  0.45  0.00  0.00  0.00  0.39  0.00
  c_905892                1.00   0.55  0.04  0.00  0.40  0.00  0.00  0.00  0.44  0.00
  c_905901                1.00   0.49  0.07  0.00  0.44  0.00  0.00  0.00  0.46  0.00
  c_905902                1.00   0.56  0.00  0.00  0.32  0.00  0.00  0.12  0.00  0.00
  c_905921                1.00   0.38  0.00  0.00  0.62  0.00  0.00  0.00  0.24  0.00
  c_905931                1.00   0.38  0.00  0.00  0.62  0.00  0.00  0.00  0.00  0.00
  c_905941                1.00   0.38  0.00  0.00  0.62  0.00  0.00  0.00  0.24  0.00
  c_905942                1.00   0.38  0.00  0.00  0.38  0.00  0.24  0.00  0.00  0.00
  c_905951                1.00   0.38  0.00  0.00  0.25  0.00  0.00  0.37  0.06  0.00
  c_905961                1.00   0.38  0.00  0.00  0.26  0.00  0.00  0.36  0.07  0.00
  c_905971                1.00   0.38  0.05  0.00  0.57  0.00  0.00  0.00  0.33  0.00
  c_905981                1.00   0.38  0.17  0.00  0.46  0.00  0.00  0.00  0.44  0.00
  c_905982                1.00   0.43  0.11  0.00  0.46  0.00  0.00  0.00  0.31  0.00
  c_905991                1.00   0.38  0.00  0.00  0.62  0.00  0.00  0.00  0.00  0.00
  c_906001                1.00   0.43  0.12  0.00  0.45  0.00  0.00  0.00  0.47  0.00
  c_906011                1.00   0.55  0.02  0.00  0.44  0.00  0.00  0.00  0.42  0.00
  c_906031                1.00   0.38  0.00  0.00  0.41  0.00  0.00  0.21  0.00  0.00
  c_906041                1.00   0.38  0.23  0.00  0.39  0.00  0.00  0.00  0.46  0.00
  c_906051                1.00   0.38  0.01  0.00  0.61  0.00  0.00  0.00  0.40  0.00
  c_906052                1.00   0.38  0.00  0.00  0.30  0.00  0.00  0.32  0.05  0.00
  c_906061                1.00   0.38  0.01  0.00  0.62  0.00  0.00  0.00  0.35  0.00
  c_906071                1.00   0.38  0.00  0.00  0.62  0.00  0.00  0.00  0.24  0.00
  c_906081                1.00   0.38  0.00  0.00  0.62  0.00  0.00  0.00  0.33  0.00
  c_906082                1.00   0.38  0.00  0.00  0.62  0.00  0.00  0.00  0.39  0.00
  c_906091                1.00   0.38  0.13  0.00  0.49  0.00  0.00  0.00  0.50  0.00
  c_906101                1.00   0.38  0.13  0.00  0.49  0.00  0.00  0.00  0.44  0.00
  c_906111                1.00   0.38  0.00  0.00  0.47  0.00  0.00  0.15  0.28  0.00
  c_906112                1.00   0.38  0.00  0.00  0.41  0.00  0.00  0.21  0.00  0.00
  c_906121                1.00   0.38  0.16  0.00  0.46  0.00  0.00  0.00  0.47  0.00
  c_906131                1.00   0.54  0.02  0.00  0.44  0.00  0.00  0.00  0.58  0.00
  c_906132                1.00   0.55  0.01  0.00  0.44  0.00  0.00  0.00  0.53  0.00
  c_906151                1.00   0.38  0.00  0.00  0.24  0.00  0.00  0.38  0.10  0.00
  c_906161                1.00   0.38  0.15  0.00  0.47  0.00  0.00  0.00  0.58  0.00
  c_906171                1.00   0.53  0.01  0.00  0.46  0.00  0.00  0.00  0.55  0.00
  c_906181                1.00   0.38  0.16  0.00  0.46  0.00  0.00  0.00  0.58  0.00
  c_906191                1.00   0.38  0.00  0.00  0.62  0.00  0.00  0.00  0.23  0.00
  c_906192                1.00   0.38  0.00  0.00  0.62  0.00  0.00  0.00  0.00  0.00
  c_906201                1.00   0.38  0.00  0.00  0.61  0.00  0.00  0.01  0.00  0.00
  c_906202                1.00   0.38  0.00  0.00  0.19  0.00  0.00  0.43  0.06  0.00
  c_906211                1.00   0.38  0.00  0.00  0.62  0.00  0.00  0.00  0.03  0.00
  c_906231                1.00   0.38  0.00  0.00  0.62  0.00  0.00  0.00  0.19  0.00
  c_906241                1.00   0.43  0.03  0.00  0.53  0.00  0.00  0.01  0.22  0.00
  c_906261                1.00   0.45  0.02  0.00  0.53  0.00  0.00  0.00  0.30  0.00
  c_906271                1.00   0.43  0.02  0.00  0.53  0.00  0.00  0.02  0.13  0.00
  c_906272                1.00   0.38  0.00  0.00  0.62  0.00  0.00  0.00  0.00  0.00
  c_906281                1.00   0.38  0.00  0.00  0.23  0.00  0.00  0.39  0.06  0.00
  c_906291                1.00   0.38  0.12  0.00  0.50  0.00  0.00  0.00  0.44  0.00
  c_906301                1.00   0.38  0.00  0.00  0.00  0.00  0.00  0.62  0.00  0.00
  c_906321                1.00   0.50  0.39  0.00  0.07  0.00  0.04  0.00  0.45  0.00
  c_906322                1.00   0.38  0.00  0.00  0.32  0.00  0.00  0.30  0.00  0.00
  c_906331                1.00   0.38  0.00  0.00  0.62  0.00  0.00  0.00  0.23  0.00
  c_906341                1.00   0.38  0.00  0.00  0.28  0.00  0.00  0.34  0.07  0.00
  c_906342                1.00   0.38  0.01  0.00  0.61  0.00  0.00  0.00  0.01  0.00
  c_906351                1.00   0.47  0.14  0.00  0.39  0.00  0.00  0.00  0.32  0.00
  c_906352                1.00   0.38  0.00  0.00  0.39  0.00  0.00  0.23  0.00  0.00
  c_906361                1.00   0.38  0.00  0.00  0.42  0.00  0.00  0.19  0.16  0.00
  c_906371                1.00   0.38  0.00  0.00  0.62  0.00  0.00  0.00  0.33  0.00
  c_906381                1.00   0.38  0.00  0.00  0.25  0.00  0.00  0.37  0.03  0.00
  c_906391                1.00   0.38  0.00  0.00  0.62  0.00  0.00  0.00  0.44  0.00
  c_906401                1.00   0.38  0.45  0.00  0.15  0.00  0.01  0.00  0.01  0.00
  c_906402                1.00   0.38  0.00  0.00  0.25  0.00  0.00  0.37  0.08  0.00
  c_906411                1.00   0.39  0.02  0.00  0.59  0.00  0.00  0.00  0.16  0.00
  c_906421                1.00   0.41  0.05  0.00  0.54  0.00  0.00  0.00  0.31  0.00
  c_906431                1.00   0.46  0.01  0.00  0.53  0.00  0.00  0.00  0.11  0.00
  c_906441                1.00   0.38  0.00  0.00  0.00  0.00  0.00  0.62  0.00  0.00
  c_906461                1.00   0.38  0.00  0.00  0.62  0.00  0.00  0.00  0.58  0.00
  c_906471                1.00   0.51  0.02  0.00  0.46  0.00  0.00  0.01  0.56  0.00
  c_906481                1.00   0.38  0.15  0.00  0.47  0.00  0.00  0.00  0.51  0.00
  c_906491                1.00   0.65  0.00  0.00  0.29  0.00  0.00  0.05  0.11  0.00
  c_906492                1.00   0.38  0.00  0.00  0.00  0.00  0.00  0.62  0.00  0.00
  c_906501                1.00   0.38  0.00  0.00  0.62  0.00  0.00  0.00  0.58  0.00
  c_906511                1.00   0.38  0.00  0.00  0.62  0.00  0.00  0.00  0.45  0.00
  c_906521                1.00   0.38  0.06  0.00  0.56  0.00  0.00  0.00  0.14  0.00
  c_906531                1.00   0.44  0.10  0.00  0.46  0.00  0.00  0.00  0.53  0.00
  c_906541                1.00   0.38  0.01  0.00  0.62  0.00  0.00  0.00  0.23  0.00
  c_906561                1.00   0.38  0.00  0.00  0.49  0.00  0.13  0.00  0.00  0.00
  c_906562                1.00   0.38  0.00  0.00  0.62  0.00  0.00  0.00  0.00  0.00
  c_906563                1.00   0.38  0.00  0.00  0.24  0.00  0.00  0.38  0.05  0.00
  c_906581                1.00   0.52  0.04  0.00  0.44  0.00  0.00  0.00  0.57  0.00
  c_906591                1.00   0.38  0.00  0.00  0.00  0.00  0.00  0.62  0.00  0.00
  c_906592                1.00   0.38  0.14  0.00  0.48  0.00  0.00  0.00  0.57  0.00
  c_906621                1.00   0.38  0.00  0.00  0.00  0.00  0.00  0.62  0.00  0.00
  c_906622                1.00   0.38  0.00  0.00  0.42  0.20  0.00  0.00  0.30  0.00
  c_906631                1.00   0.38  0.00  0.00  0.23  0.00  0.00  0.39  0.00  0.00
  c_906641                1.00   0.38  0.00  0.00  0.28  0.00  0.00  0.35  0.00  0.00
  c_906651                1.00   0.38  0.00  0.00  0.61  0.00  0.00  0.02  0.00  0.00
  c_906701                1.00   0.38  0.00  0.00  0.62  0.00  0.00  0.00  0.00  0.00
  c_906731                1.00   0.38  0.00  0.00  0.40  0.00  0.00  0.22  0.00  0.00
  c_906741                1.00   0.38  0.00  0.00  0.62  0.00  0.00  0.00  0.00  0.00
  c_906742                1.00   0.38  0.00  0.00  0.61  0.00  0.00  0.01  0.12  0.00
  c_906751                1.00   0.40  0.08  0.00  0.52  0.00  0.00  0.00  0.21  0.00
  c_906761                1.00   0.38  0.00  0.00  0.62  0.00  0.00  0.00  0.01  0.00
  c_906771                1.00   0.38  0.00  0.00  0.62  0.00  0.00  0.00  0.01  0.00
  c_906772                1.00   0.38  0.00  0.00  0.62  0.00  0.00  0.00  0.00  0.00
  c_906781                1.00   0.38  0.04  0.00  0.58  0.00  0.00  0.00  0.41  0.00
  c_906791                1.00   0.42  0.11  0.00  0.46  0.00  0.00  0.00  0.33  0.00
  c_906801                1.00   0.38  0.00  0.00  0.42  0.00  0.00  0.19  0.06  0.00
  c_906811                1.00   0.38  0.00  0.00  0.62  0.00  0.00  0.01  0.36  0.00
  c_906821                1.00   0.38  0.08  0.00  0.54  0.00  0.00  0.00  0.58  0.00
  c_906831                1.00   0.38  0.00  0.00  0.25  0.00  0.00  0.37  0.00  0.00
  c_906832                1.00   0.38  0.00  0.00  0.62  0.00  0.00  0.00  0.39  0.00
  c_906841                1.00   0.38  0.00  0.00  0.32  0.00  0.00  0.30  0.00  0.00
  c_906851                1.00   0.38  0.00  0.00  0.00  0.00  0.00  0.62  0.00  0.00
  c_906861                1.00   0.38  0.06  0.00  0.57  0.00  0.00  0.00  0.27  0.00
  c_906862                1.00   0.43  0.11  0.00  0.46  0.00  0.00  0.00  0.35  0.00
  c_906891                1.00   0.38  0.00  0.00  0.00  0.00  0.00  0.62  0.00  0.00
  c_906892                1.00   0.38  0.00  0.00  0.00  0.00  0.00  0.62  0.00  0.00
  c_906901                1.00   0.38  0.00  0.00  0.62  0.00  0.00  0.00  0.52  0.00
  c_906911                1.00   0.38  0.00  0.00  0.00  0.00  0.00  0.62  0.00  0.00
  c_906921                1.00   0.38  0.06  0.00  0.56  0.00  0.00  0.00  0.58  0.00
  c_906931                1.00   0.44  0.56  0.00  0.00  0.00  0.00  0.00  0.00  0.00
  c_906932                1.00   0.38  0.00  0.00  0.00  0.00  0.00  0.62  0.00  0.00
  c_906941                1.00   0.38  0.57  0.00  0.05  0.00  0.00  0.00  0.49  0.00
  c_906951                1.00   0.38  0.00  0.00  0.00  0.00  0.00  0.62  0.00  0.00
  c_906961                1.00   0.38  0.00  0.00  0.62  0.00  0.00  0.00  0.57  0.00
  c_906971                1.00   0.38  0.00  0.00  0.62  0.00  0.00  0.00  0.58  0.00
  c_906981                1.00   0.38  0.00  0.00  0.62  0.00  0.00  0.00  0.53  0.00
  c_906991                1.00   0.38  0.00  0.00  0.62  0.00  0.00  0.00  0.54  0.00
  c_906992                1.00   0.38  0.00  0.00  0.62  0.00  0.00  0.00  0.49  0.00
  c_907001                1.00   0.38  0.00  0.00  0.00  0.00  0.00  0.62  0.00  0.00
  c_907011                1.00   0.38  0.00  0.00  0.00  0.00  0.00  0.62  0.00  0.00
  c_907021                1.00   0.38  0.00  0.00  0.00  0.00  0.00  0.62  0.00  0.00
  c_907031                1.00   0.38  0.01  0.00  0.61  0.00  0.00  0.00  0.21  0.00
  c_907032                1.00   0.38  0.00  0.00  0.29  0.00  0.00  0.34  0.09  0.00
  c_907033                1.00   0.38  0.00  0.00  0.52  0.00  0.00  0.10  0.14  0.00
  c_907041                1.00   0.38  0.00  0.00  0.28  0.00  0.00  0.34  0.00  0.00
  c_907042                1.00   0.38  0.17  0.00  0.46  0.00  0.00  0.00  0.28  0.00
  c_907051                1.00   0.62  0.27  0.00  0.10  0.00  0.01  0.00  0.05  0.00
  c_907061                1.00   0.38  0.00  0.00  0.62  0.00  0.00  0.00  0.01  0.00
  c_907062                1.00   0.38  0.00  0.00  0.62  0.00  0.00  0.00  0.30  0.00
  c_907071                1.00   0.38  0.00  0.00  0.25  0.00  0.00  0.38  0.00  0.00
  c_907081                1.00   0.38  0.00  0.00  0.19  0.00  0.00  0.44  0.08  0.00
  c_907091                1.00   0.38  0.00  0.00  0.62  0.00  0.00  0.00  0.47  0.00
  c_907101                1.00   0.38  0.08  0.00  0.54  0.00  0.00  0.00  0.56  0.00
  c_907241                1.00   0.38  0.00  0.00  0.62  0.00  0.00  0.00  0.00  0.00
  c_907242                1.00   0.38  0.00  0.00  0.62  0.00  0.00  0.00  0.00  0.00
  c_907251                1.00   0.38  0.00  0.00  0.51  0.00  0.00  0.12  0.47  0.00
  c_907261                1.00   0.38  0.18  0.00  0.44  0.00  0.00  0.00  0.52  0.00
  c_907271                1.00   0.38  0.00  0.00  0.62  0.00  0.00  0.00  0.57  0.00
  c_907281                1.00   0.38  0.62  0.00  0.00  0.00  0.00  0.00  0.00  0.00
  c_907291                1.00   0.38  0.10  0.00  0.52  0.00  0.00  0.00  0.58  0.00
  c_907301                1.00   0.38  0.00  0.00  0.62  0.00  0.00  0.00  0.57  0.00
  c_907311                1.00   0.38  0.03  0.00  0.59  0.00  0.00  0.00  0.57  0.00
  c_907321                1.00   0.41  0.15  0.00  0.44  0.00  0.00  0.00  0.58  0.00
  c_907331                1.00   0.38  0.00  0.00  0.62  0.00  0.00  0.00  0.36  0.00
  c_907332                1.00   0.38  0.00  0.00  0.50  0.00  0.00  0.13  0.13  0.00
  c_912721                1.00   1.00  0.00  0.00  0.00  0.00  0.00  0.00  0.00  0.00
  c_912731                1.00   1.00  0.00  0.00  0.00  0.00  0.00  0.00  0.00  0.00
  c_912741                1.00   1.00  0.00  0.00  0.00  0.00  0.00  0.00  0.00  0.00
  c_912751                1.00   1.00  0.00  0.00  0.00  0.00  0.00  0.00  0.00  0.00
  c_912761                1.00   1.00  0.00  0.00  0.00  0.00  0.00  0.00  0.00  0.00
  c_912771                1.00   1.00  0.00  0.00  0.00  0.00  0.00  0.00  0.00  0.00
  c_912781                1.00   1.00  0.00  0.00  0.00  0.00  0.00  0.00  0.00  0.00
  c_912791                1.00   1.00  0.00  0.00  0.00  0.00  0.00  0.00  0.00  0.00
  c_912931                1.00   0.48  0.52  0.00  0.00  0.00  0.00  0.00  0.00  0.00
  c_912932                1.00   0.47  0.00  0.00  0.10  0.00  0.00  0.42  0.00  0.00
  c_912941                1.00   1.00  0.00  0.00  0.00  0.00  0.00  0.00  0.00  0.00
  
  
  *************************
  Conduit Surcharge Summary
  *************************
  
  ----------------------------------------------------------------------------
                                                           Hours        Hours 
                         --------- Hours Full --------   Above Full   Capacity
  Conduit                Both Ends  Upstream  Dnstream   Normal Flow   Limited
  ----------------------------------------------------------------------------
  c_903642                    0.01      0.01      0.01      0.30         0.01
  c_903672                    0.01      0.01      0.01      0.08         0.01
  c_903981                    0.01      0.01      0.18      0.01         0.01
  c_904381                    0.01      0.01      0.01      0.19         0.01
  c_904421                    0.01      0.01      0.01      0.48         0.01
  c_904441                    0.01      0.01      0.15      0.01         0.01
  c_904592                    0.01      0.01      0.01      0.21         0.01
  c_904871                    0.01      0.01      0.05      0.01         0.01
  c_904881                    0.05      0.05      0.22      0.01         0.01
  c_904921                    0.14      0.14      0.21      0.01         0.01
  c_904951                    0.36      0.36      0.40      0.01         0.01
  c_904952                    0.53      0.53      0.54      0.01         0.01
  c_905051                    0.01      0.01      0.28      0.01         0.01
  c_905061                    0.01      0.01      0.03      0.01         0.01
  c_905071                    0.01      0.01      0.03      0.01         0.01
  c_905121                    0.24      0.24      0.29      0.01         0.01
  c_905241                    0.03      0.03      0.26      0.01         0.01
  c_905251                    0.01      0.01      0.03      0.01         0.01
  c_905521                    0.01      0.01      0.01      0.21         0.01
  c_905571                    0.01      0.01      0.01      0.33         0.01
  c_905591                    0.01      0.01      0.14      0.01         0.01
  c_905601                    0.16      0.16      0.19      0.01         0.01
  c_905602                    0.01      0.01      0.16      0.01         0.01
  c_905632                    0.06      0.06      0.11      1.00         0.01
  c_905722                    0.01      0.01      0.01      0.01         0.01
  c_905741                    0.54      0.54      0.60      0.01         0.01
  c_905751                    0.57      0.57      0.76      0.01         0.01
  c_905752                    0.01      0.01      0.17      0.01         0.01
  c_905781                    0.01      0.01      0.08      0.01         0.01
  c_905851                    0.01      0.01      0.14      0.01         0.01
  c_905861                    0.01      0.01      0.01      1.07         0.01
  c_905881                    0.01      0.01      0.12      0.01         0.01
  c_905921                    0.38      0.38      0.45      0.01         0.01
  c_905931                    0.01      0.01      0.01      1.00         0.01
  c_905942                    0.39      0.39      0.45      0.66         0.01
  c_906201                    0.01      0.01      0.01      0.93         0.01
  c_906241                    0.40      0.40      0.54      0.01         0.01
  c_906261                    0.28      0.28      0.49      0.01         0.01
  c_906271                    0.49      0.49      0.52      0.01         0.01
  c_906322                    0.01      0.01      0.01      0.30         0.01
  c_906351                    0.16      0.16      0.28      0.01         0.01
  c_906352                    0.28      0.28      0.30      0.01         0.01
  c_906361                    0.01      0.01      0.24      0.01         0.01
  c_906561                    0.01      0.01      0.01      0.11         0.01
  c_906631                    0.01      0.01      0.01      0.21         0.01
  c_906651                    0.70      0.70      0.70      0.01         0.04
  c_906731                    0.39      0.40      0.39      0.22         0.14
  c_906741                    0.01      0.01      0.01      0.50         0.01
  c_906781                    0.01      0.01      0.35      0.01         0.01
  c_906821                    0.01      0.01      0.28      0.01         0.01
  c_906841                    0.24      0.24      0.26      0.01         0.01
  c_907032                    0.01      0.01      0.14      0.01         0.01
  c_907033                    0.01      0.01      0.04      0.01         0.01
  c_907061                    0.26      0.26      0.36      0.01         0.01
  c_907062                    0.26      0.26      0.38      0.01         0.01
  c_907091                    0.01      0.01      0.24      0.01         0.01
  c_907242                    0.01      0.01      0.01      0.02         0.01
  

  Analysis begun on:  Sun Jun 12 01:37:56 2022
  Analysis ended on:  Sun Jun 12 01:38:01 2022
  Total elapsed time: 00:00:05