
  EPA STORM WATER MANAGEMENT MODEL - VERSION 5.1 (Build 5.1.015)
  --------------------------------------------------------------

  WARNING 04: minimum elevation drop used for Conduit c_903642
  WARNING 04: minimum elevation drop used for Conduit c_903651
  WARNING 04: minimum elevation drop used for Conduit c_903672
  WARNING 04: minimum elevation drop used for Conduit c_905571
  WARNING 04: minimum elevation drop used for Conduit c_905632
  WARNING 04: minimum elevation drop used for Conduit c_905821
  WARNING 04: minimum elevation drop used for Conduit c_905861
  WARNING 04: minimum elevation drop used for Conduit c_905931
  WARNING 04: minimum elevation drop used for Conduit c_906201
  WARNING 04: minimum elevation drop used for Conduit c_906322
  WARNING 04: minimum elevation drop used for Conduit c_906631
  WARNING 04: minimum elevation drop used for Conduit c_906641
  WARNING 04: minimum elevation drop used for Conduit c_906651
  WARNING 04: minimum elevation drop used for Conduit c_906731
  WARNING 04: minimum elevation drop used for Conduit c_906741
  WARNING 04: minimum elevation drop used for Conduit c_907242
  
  *********************
  Rainfall File Summary
  *********************
  Station    First        Last         Recording   Periods    Periods    Periods
  ID         Date         Date         Frequency  w/Precip    Missing    Malfunc.
  -------------------------------------------------------------------------------
  R1         01/01/2019   01/01/2019       5 min        34          0          0
  R1         01/01/2019   01/01/2019       5 min        34          0          0
  R1         01/01/2019   01/01/2019       5 min        34          0          0

  
  *********************************************************
  NOTE: The summary statistics displayed in this report are
  based on results found at every computational time step,  
  not just on results from each reporting time step.
  *********************************************************
  
  ****************
  Analysis Options
  ****************
  Flow Units ............... CMS
  Process Models:
    Rainfall/Runoff ........ YES
    RDII ................... NO
    Snowmelt ............... NO
    Groundwater ............ NO
    Flow Routing ........... YES
    Ponding Allowed ........ NO
    Water Quality .......... NO
  Infiltration Method ...... HORTON
  Flow Routing Method ...... DYNWAVE
  Surcharge Method ......... EXTRAN
  Starting Date ............ 01/01/2019 00:00:00
  Ending Date .............. 01/01/2019 02:50:00
  Antecedent Dry Days ...... 0.0
  Report Time Step ......... 00:05:00
  Wet Time Step ............ 00:01:00
  Dry Time Step ............ 00:10:00
  Routing Time Step ........ 1.00 sec
  Variable Time Step ....... YES
  Maximum Trials ........... 12
  Number of Threads ........ 2
  Head Tolerance ........... 0.000200 m
  
  
  **************************        Volume         Depth
  Runoff Quantity Continuity     hectare-m            mm
  **************************     ---------       -------
  Total Precipitation ......         0.555        20.000
  Evaporation Loss .........         0.003         0.093
  Infiltration Loss ........         0.016         0.578
  Surface Runoff ...........         0.440        15.864
  Final Storage ............         0.099         3.555
  Continuity Error (%) .....        -0.450
  
  
  **************************        Volume        Volume
  Flow Routing Continuity        hectare-m      10^6 ltr
  **************************     ---------     ---------
  Dry Weather Inflow .......         0.000         0.000
  Wet Weather Inflow .......         0.440         4.402
  Groundwater Inflow .......         0.000         0.000
  RDII Inflow ..............         0.000         0.000
  External Inflow ..........         0.000         0.000
  External Outflow .........         0.440         4.396
  Flooding Loss ............         0.000         0.000
  Evaporation Loss .........         0.000         0.000
  Exfiltration Loss ........         0.000         0.000
  Initial Stored Volume ....         0.000         0.000
  Final Stored Volume ......         0.001         0.014
  Continuity Error (%) .....        -0.165
  
  
  *************************
  Highest Continuity Errors
  *************************
  Node j_90434 (1.99%)
  Node j_90457 (1.41%)
  Node j_90650 (1.28%)
  Node j_90388 (1.22%)
  Node j_90618 (1.20%)
  
  
  ***************************
  Time-Step Critical Elements
  ***************************
  Link c_904312 (48.48%)
  
  
  ********************************
  Highest Flow Instability Indexes
  ********************************
  Link c_906651 (3)
  
  
  *************************
  Routing Time Step Summary
  *************************
  Minimum Time Step           :     0.46 sec
  Average Time Step           :     0.83 sec
  Maximum Time Step           :     1.00 sec
  Percent in Steady State     :     2.94
  Average Iterations per Step :     2.32
  Percent Not Converging      :     1.57
  Time Step Frequencies       :
      1.000 -  0.871 sec      :    54.45 %
      0.871 -  0.758 sec      :     5.42 %
      0.758 -  0.660 sec      :     5.43 %
      0.660 -  0.574 sec      :    19.10 %
      0.574 -  0.500 sec      :    15.60 %
  
  
  ***************************
  Subcatchment Runoff Summary
  ***************************
  
  ------------------------------------------------------------------------------------------------------------------------------
                            Total      Total      Total      Total     Imperv       Perv      Total       Total     Peak  Runoff
                           Precip      Runon       Evap      Infil     Runoff     Runoff     Runoff      Runoff   Runoff   Coeff
  Subcatchment                 mm         mm         mm         mm         mm         mm         mm    10^6 ltr      CMS
  ------------------------------------------------------------------------------------------------------------------------------
  sub_9006F                 20.00       0.00       0.09       0.48       9.31       6.23      15.54        0.01     0.00   0.777
  sub_90334                 20.00       0.00       0.09       1.27       1.69      16.43      18.11        0.02     0.01   0.906
  sub_90335                 20.00       0.00       0.10       0.29      11.15       3.78      14.92        0.03     0.01   0.746
  sub_90336                 20.00       0.00       0.09       0.98       4.51      12.66      17.16        0.01     0.00   0.858
  sub_90363                 20.00       0.00       0.10       0.29      11.12       3.81      14.93        0.03     0.01   0.747
  sub_90364                 20.00       0.00       0.09       1.07       3.56      13.93      17.48        0.01     0.00   0.874
  sub_90365                 20.00       0.00       0.08       1.44       0.00      18.68      18.68        0.00     0.00   0.934
  sub_90366                 20.00       0.00       0.09       0.49       9.25       6.32      15.56        0.01     0.00   0.778
  sub_90367                 20.00       0.00       0.09       0.82       6.02      10.64      16.65        0.01     0.00   0.833
  sub_90369                 20.00       0.00       0.09       0.59       8.28       7.61      15.89        0.03     0.01   0.795
  sub_90370                 20.00       0.00       0.10       0.39      10.14       5.12      15.26        0.01     0.00   0.763
  sub_90371                 20.00       0.00       0.10       0.21      11.97       2.67      14.64        0.01     0.01   0.732
  sub_90372                 20.00       0.00       0.09       0.91       5.15      11.80      16.95        0.01     0.00   0.847
  sub_90373                 20.00       0.00       0.10       0.06      13.36       0.81      14.18        0.01     0.00   0.709
  sub_90375                 20.00       0.00       0.10       0.29      11.18       3.74      14.91        0.01     0.00   0.746
  sub_90376                 20.00       0.00       0.09       0.51       8.98       6.67      15.65        0.00     0.00   0.783
  sub_90377                 20.00       0.00       0.10       0.30      11.02       3.95      14.97        0.01     0.00   0.748
  sub_90378                 20.00       0.00       0.10       0.41      10.03       5.27      15.30        0.01     0.00   0.765
  sub_90379                 20.00       0.00       0.09       0.68       7.35       8.85      16.20        0.02     0.01   0.810
  sub_90380                 20.00       0.00       0.09       0.62       7.95       8.05      16.00        0.02     0.01   0.800
  sub_90381                 20.00       0.00       0.09       0.63       7.88       8.14      16.02        0.01     0.00   0.801
  sub_90382                 20.00       0.00       0.09       0.52       8.92       6.76      15.68        0.01     0.01   0.784
  sub_90383                 20.00       0.00       0.09       0.44       9.66       5.77      15.43        0.01     0.00   0.771
  sub_90384                 20.00       0.00       0.09       0.85       5.72      11.04      16.76        0.01     0.00   0.838
  sub_90385                 20.00       0.00       0.10       0.38      10.32       4.89      15.20        0.01     0.00   0.760
  sub_90386                 20.00       0.00       0.09       0.69       7.29       8.94      16.22        0.02     0.01   0.811
  sub_90387                 20.00       0.00       0.09       0.54       8.76       6.98      15.73        0.01     0.00   0.787
  sub_90388                 20.00       0.00       0.09       0.53       8.81       6.90      15.71        0.01     0.00   0.786
  sub_90389                 20.00       0.00       0.09       0.59       8.25       7.66      15.90        0.01     0.00   0.795
  sub_90390                 20.00       0.00       0.09       0.74       6.77       9.62      16.40        0.01     0.00   0.820
  sub_90391                 20.00       0.00       0.08       1.44       0.00      18.68      18.68        0.01     0.00   0.934
  sub_90392                 20.00       0.00       0.09       0.92       5.04      11.95      16.98        0.01     0.00   0.849
  sub_90393                 20.00       0.00       0.09       0.91       5.15      11.79      16.95        0.02     0.01   0.847
  sub_90394                 20.00       0.00       0.09       0.86       5.59      11.21      16.80        0.01     0.00   0.840
  sub_90395                 20.00       0.00       0.10       0.33      10.73       4.34      15.06        0.01     0.00   0.753
  sub_90396                 20.00       0.00       0.10       0.00      13.97       0.00      13.97        0.00     0.00   0.699
  sub_90397                 20.00       0.00       0.09       0.78       6.43      10.08      16.51        0.01     0.00   0.826
  sub_90398                 20.00       0.00       0.09       0.81       6.10      10.53      16.63        0.01     0.00   0.831
  sub_90399                 20.00       0.00       0.09       0.45       9.56       5.90      15.46        0.01     0.00   0.773
  sub_90400                 20.00       0.00       0.09       0.54       8.73       7.01      15.74        0.01     0.00   0.787
  sub_90401                 20.00       0.00       0.10       0.32      10.89       4.12      15.01        0.01     0.00   0.751
  sub_90402                 20.00       0.00       0.10       0.34      10.70       4.37      15.07        0.01     0.00   0.754
  sub_90403                 20.00       0.00       0.09       0.54       8.69       7.06      15.75        0.01     0.00   0.788
  sub_90404                 20.00       0.00       0.09       0.57       8.42       7.42      15.84        0.01     0.00   0.792
  sub_90405                 20.00       0.00       0.09       0.63       7.88       8.14      16.02        0.01     0.00   0.801
  sub_90406                 20.00       0.00       0.09       0.76       6.60       9.86      16.46        0.01     0.00   0.823
  sub_90407                 20.00       0.00       0.09       0.75       6.74       9.68      16.41        0.01     0.00   0.821
  sub_90408                 20.00       0.00       0.09       0.48       9.34       6.19      15.53        0.02     0.01   0.777
  sub_90427                 20.00       0.00       0.09       0.56       8.54       7.26      15.80        0.02     0.01   0.790
  sub_90428                 20.00       0.00       0.09       0.68       7.38       8.82      16.19        0.01     0.00   0.810
  sub_90430                 20.00       0.00       0.10       0.32      10.83       4.19      15.03        0.01     0.00   0.751
  sub_90431                 20.00       0.00       0.09       0.52       8.91       6.77      15.68        0.01     0.00   0.784
  sub_90433                 20.00       0.00       0.09       0.72       6.99       9.34      16.33        0.00     0.00   0.816
  sub_90434                 20.00       0.00       0.10       0.26      11.48       3.34      14.81        0.01     0.00   0.741
  sub_90435                 20.00       0.00       0.09       0.46       9.53       5.93      15.47        0.01     0.00   0.773
  sub_90436                 20.00       0.00       0.10       0.23      11.74       2.99      14.72        0.01     0.00   0.736
  sub_90437                 20.00       0.00       0.10       0.36      10.45       4.71      15.16        0.02     0.01   0.758
  sub_90438                 20.00       0.00       0.09       0.51       8.99       6.66      15.65        0.01     0.00   0.782
  sub_90439                 20.00       0.00       0.09       0.52       8.94       6.73      15.67        0.01     0.00   0.783
  sub_90440                 20.00       0.00       0.09       0.59       8.27       7.62      15.89        0.02     0.01   0.795
  sub_90441                 20.00       0.00       0.09       0.96       4.66      12.46      17.11        0.01     0.00   0.856
  sub_90442                 20.00       0.00       0.09       1.13       3.03      14.64      17.66        0.03     0.01   0.883
  sub_90443                 20.00       0.00       0.09       0.84       5.82      10.91      16.72        0.04     0.01   0.836
  sub_90444                 20.00       0.00       0.10       0.40      10.05       5.25      15.29        0.01     0.00   0.765
  sub_90445                 20.00       0.00       0.09       0.71       7.08       9.22      16.30        0.01     0.00   0.815
  sub_90446                 20.00       0.00       0.10       0.43       9.80       5.58      15.38        0.01     0.00   0.769
  sub_90447                 20.00       0.00       0.09       0.67       7.48       8.69      16.16        0.02     0.01   0.808
  sub_90448                 20.00       0.00       0.09       0.62       7.94       8.07      16.01        0.02     0.01   0.800
  sub_90449                 20.00       0.00       0.09       0.59       8.28       7.61      15.89        0.01     0.00   0.795
  sub_90450                 20.00       0.00       0.09       0.50       9.15       6.44      15.60        0.00     0.00   0.780
  sub_90451                 20.00       0.00       0.09       0.63       7.85       8.19      16.04        0.01     0.00   0.802
  sub_90452                 20.00       0.00       0.09       0.81       6.11      10.51      16.62        0.01     0.00   0.831
  sub_90453                 20.00       0.00       0.10       0.42       9.93       5.40      15.33        0.01     0.00   0.767
  sub_90454                 20.00       0.00       0.09       0.56       8.53       7.28      15.81        0.02     0.01   0.790
  sub_90455                 20.00       0.00       0.10       0.31      10.98       4.00      14.98        0.01     0.00   0.749
  sub_90456                 20.00       0.00       0.09       0.84       5.87      10.84      16.70        0.03     0.01   0.835
  sub_90457                 20.00       0.00       0.09       0.82       6.00      10.66      16.66        0.03     0.01   0.833
  sub_90459                 20.00       0.00       0.09       1.00       4.30      12.93      17.23        0.03     0.01   0.862
  sub_90460                 20.00       0.00       0.08       1.34       1.01      17.33      18.34        0.02     0.00   0.917
  sub_90461                 20.00       0.00       0.09       0.48       9.31       6.23      15.54        0.01     0.00   0.777
  sub_90462                 20.00       0.00       0.09       0.68       7.41       8.78      16.19        0.01     0.00   0.809
  sub_90463                 20.00       0.00       0.10       0.35      10.60       4.51      15.11        0.01     0.00   0.755
  sub_90464                 20.00       0.00       0.09       0.58       8.36       7.51      15.87        0.02     0.01   0.793
  sub_90465                 20.00       0.00       0.10       0.31      10.98       4.00      14.98        0.01     0.00   0.749
  sub_90466                 20.00       0.00       0.09       0.54       8.73       7.01      15.74        0.02     0.01   0.787
  sub_90467                 20.00       0.00       0.10       0.26      11.41       3.43      14.84        0.02     0.01   0.742
  sub_90468                 20.00       0.00       0.09       0.51       9.01       6.64      15.65        0.02     0.01   0.782
  sub_90469                 20.00       0.00       0.10       0.31      10.98       4.00      14.98        0.01     0.00   0.749
  sub_90470                 20.00       0.00       0.09       0.53       8.83       6.87      15.70        0.02     0.01   0.785
  sub_90471                 20.00       0.00       0.09       0.44       9.71       5.69      15.41        0.02     0.01   0.770
  sub_90477                 20.00       0.00       0.10       0.30      11.06       3.89      14.95        0.02     0.01   0.748
  sub_90478                 20.00       0.00       0.10       0.35      10.60       4.51      15.11        0.01     0.00   0.755
  sub_90479                 20.00       0.00       0.09       0.83       5.96      10.71      16.67        0.01     0.00   0.834
  sub_90480                 20.00       0.00       0.10       0.41      10.03       5.27      15.30        0.02     0.01   0.765
  sub_90481                 20.00       0.00       0.09       0.52       8.97       6.69      15.66        0.01     0.01   0.783
  sub_90482                 20.00       0.00       0.09       0.54       8.76       6.97      15.73        0.01     0.00   0.786
  sub_90483                 20.00       0.00       0.09       1.08       3.49      14.01      17.51        0.02     0.01   0.875
  sub_90484                 20.00       0.00       0.09       0.45       9.60       5.84      15.44        0.01     0.01   0.772
  sub_90485                 20.00       0.00       0.09       0.81       6.10      10.53      16.63        0.02     0.01   0.831
  sub_90486                 20.00       0.00       0.09       0.60       8.13       7.81      15.94        0.02     0.01   0.797
  sub_90487                 20.00       0.00       0.09       0.52       8.97       6.69      15.66        0.03     0.01   0.783
  sub_90488                 20.00       0.00       0.09       0.63       7.87       8.17      16.03        0.02     0.01   0.802
  sub_90489                 20.00       0.00       0.10       0.32      10.88       4.13      15.01        0.01     0.00   0.751
  sub_90490                 20.00       0.00       0.10       0.28      11.21       3.70      14.90        0.01     0.01   0.745
  sub_90491                 20.00       0.00       0.10       0.34      10.72       4.35      15.07        0.02     0.01   0.753
  sub_90492                 20.00       0.00       0.09       0.45       9.59       5.86      15.45        0.02     0.01   0.772
  sub_90493                 20.00       0.00       0.10       0.31      10.99       3.99      14.98        0.01     0.00   0.749
  sub_90494                 20.00       0.00       0.10       0.29      11.12       3.82      14.93        0.01     0.01   0.747
  sub_90495                 20.00       0.00       0.09       0.46       9.50       5.98      15.48        0.02     0.01   0.774
  sub_90496                 20.00       0.00       0.10       0.31      10.99       3.99      14.98        0.01     0.00   0.749
  sub_90497                 20.00       0.00       0.10       0.28      11.30       3.58      14.87        0.01     0.01   0.744
  sub_90498                 20.00       0.00       0.09       0.52       8.94       6.73      15.67        0.03     0.01   0.783
  sub_90499                 20.00       0.00       0.09       0.90       5.20      11.73      16.93        0.02     0.01   0.846
  sub_90500                 20.00       0.00       0.09       0.66       7.54       8.60      16.14        0.02     0.01   0.807
  sub_90501                 20.00       0.00       0.10       0.29      11.15       3.77      14.92        0.01     0.01   0.746
  sub_90502                 20.00       0.00       0.09       0.57       8.44       7.40      15.84        0.02     0.01   0.792
  sub_90503                 20.00       0.00       0.10       0.32      10.87       4.15      15.02        0.01     0.00   0.751
  sub_90504                 20.00       0.00       0.10       0.30      11.09       3.86      14.94        0.01     0.01   0.747
  sub_90505                 20.00       0.00       0.10       0.35      10.59       4.52      15.11        0.01     0.01   0.756
  sub_90506                 20.00       0.00       0.10       0.38      10.28       4.94      15.22        0.01     0.00   0.761
  sub_90507                 20.00       0.00       0.10       0.40      10.11       5.17      15.27        0.01     0.01   0.764
  sub_90508                 20.00       0.00       0.10       0.39      10.22       5.01      15.24        0.01     0.00   0.762
  sub_90509                 20.00       0.00       0.09       0.80       6.23      10.35      16.58        0.01     0.00   0.829
  sub_90510                 20.00       0.00       0.10       0.36      10.48       4.67      15.15        0.01     0.00   0.757
  sub_90511                 20.00       0.00       0.09       0.62       7.98       8.01      15.99        0.01     0.00   0.800
  sub_90512                 20.00       0.00       0.10       0.41      10.00       5.31      15.31        0.02     0.01   0.766
  sub_90513                 20.00       0.00       0.10       0.28      11.25       3.64      14.89        0.03     0.01   0.744
  sub_90514                 20.00       0.00       0.10       0.37      10.36       4.83      15.19        0.02     0.01   0.759
  sub_90515                 20.00       0.00       0.09       0.65       7.63       8.48      16.11        0.02     0.01   0.805
  sub_90516                 20.00       0.00       0.09       0.91       5.12      11.84      16.96        0.01     0.00   0.848
  sub_90517                 20.00       0.00       0.09       0.66       7.57       8.56      16.13        0.01     0.00   0.807
  sub_90518                 20.00       0.00       0.10       0.20      12.05       2.56      14.62        0.01     0.00   0.731
  sub_90519                 20.00       0.00       0.09       0.73       6.85       9.52      16.37        0.03     0.01   0.819
  sub_90520                 20.00       0.00       0.09       0.71       7.04       9.26      16.31        0.02     0.01   0.815
  sub_90521                 20.00       0.00       0.10       0.42       9.89       5.46      15.35        0.01     0.00   0.767
  sub_90522                 20.00       0.00       0.10       0.34      10.70       4.37      15.07        0.01     0.00   0.754
  sub_90523                 20.00       0.00       0.10       0.42       9.91       5.42      15.34        0.02     0.01   0.767
  sub_90524                 20.00       0.00       0.09       0.70       7.15       9.12      16.27        0.03     0.01   0.814
  sub_90525                 20.00       0.00       0.09       0.89       5.38      11.49      16.87        0.04     0.01   0.843
  sub_90526                 20.00       0.00       0.09       0.71       7.07       9.22      16.30        0.01     0.00   0.815
  sub_90527                 20.00       0.00       0.09       0.92       5.07      11.91      16.97        0.02     0.00   0.849
  sub_90549                 20.00       0.00       0.09       0.67       7.51       8.64      16.15        0.01     0.00   0.808
  sub_90550                 20.00       0.00       0.10       0.00      13.97       0.00      13.97        0.01     0.00   0.699
  sub_90551                 20.00       0.00       0.09       0.78       6.41      10.11      16.52        0.01     0.00   0.826
  sub_90552                 20.00       0.00       0.10       0.32      10.88       4.14      15.01        0.04     0.02   0.751
  sub_90553                 20.00       0.00       0.09       0.75       6.73       9.69      16.41        0.01     0.00   0.821
  sub_90554                 20.00       0.00       0.09       0.71       7.08       9.22      16.30        0.01     0.00   0.815
  sub_90555                 20.00       0.00       0.09       0.87       5.55      11.26      16.81        0.01     0.00   0.840
  sub_90556                 20.00       0.00       0.09       0.95       4.75      12.33      17.08        0.03     0.01   0.854
  sub_90557                 20.00       0.00       0.09       0.49       9.22       6.35      15.57        0.02     0.01   0.779
  sub_90558                 20.00       0.00       0.09       0.49       9.18       6.41      15.59        0.03     0.01   0.779
  sub_90559                 20.00       0.00       0.09       0.78       6.45      10.06      16.51        0.02     0.01   0.825
  sub_90560                 20.00       0.00       0.09       0.64       7.76       8.30      16.07        0.03     0.01   0.803
  sub_90561                 20.00       0.00       0.09       0.57       8.45       7.39      15.83        0.02     0.01   0.792
  sub_90562                 20.00       0.00       0.09       0.53       8.86       6.84      15.69        0.02     0.01   0.785
  sub_90563                 20.00       0.00       0.09       0.50       9.14       6.45      15.60        0.02     0.01   0.780
  sub_90564                 20.00       0.00       0.10       0.43       9.80       5.58      15.38        0.01     0.00   0.769
  sub_90565                 20.00       0.00       0.09       0.61       8.02       7.95      15.98        0.02     0.01   0.799
  sub_90566                 20.00       0.00       0.09       0.63       7.87       8.16      16.03        0.02     0.01   0.801
  sub_90567                 20.00       0.00       0.09       0.75       6.71       9.72      16.42        0.01     0.00   0.821
  sub_90568                 20.00       0.00       0.10       0.00      13.97       0.00      13.97        0.01     0.00   0.699
  sub_90569                 20.00       0.00       0.09       0.69       7.28       8.95      16.23        0.01     0.00   0.811
  sub_90570                 20.00       0.00       0.09       0.82       5.99      10.68      16.66        0.01     0.00   0.833
  sub_90571                 20.00       0.00       0.09       0.44       9.68       5.73      15.42        0.01     0.00   0.771
  sub_90572                 20.00       0.00       0.09       0.44       9.71       5.69      15.41        0.02     0.01   0.770
  sub_90573                 20.00       0.00       0.10       0.29      11.12       3.82      14.93        0.01     0.01   0.747
  sub_90574                 20.00       0.00       0.10       0.33      10.73       4.33      15.06        0.01     0.00   0.753
  sub_90575                 20.00       0.00       0.09       0.55       8.67       7.09      15.76        0.02     0.01   0.788
  sub_90576                 20.00       0.00       0.09       0.59       8.21       7.70      15.91        0.02     0.01   0.796
  sub_90577                 20.00       0.00       0.09       0.58       8.38       7.47      15.86        0.01     0.00   0.793
  sub_90578                 20.00       0.00       0.09       0.50       9.10       6.52      15.61        0.02     0.01   0.781
  sub_90579                 20.00       0.00       0.10       0.42       9.89       5.46      15.35        0.02     0.01   0.767
  sub_90580                 20.00       0.00       0.09       0.87       5.50      11.33      16.83        0.02     0.01   0.841
  sub_90581                 20.00       0.00       0.09       0.70       7.14       9.13      16.27        0.01     0.00   0.814
  sub_90582                 20.00       0.00       0.09       0.55       8.61       7.17      15.78        0.02     0.01   0.789
  sub_90583                 20.00       0.00       0.09       0.69       7.27       8.96      16.23        0.02     0.01   0.812
  sub_90584                 20.00       0.00       0.10       0.39      10.22       5.02      15.24        0.01     0.01   0.762
  sub_90585                 20.00       0.00       0.10       0.39      10.23       5.00      15.23        0.02     0.01   0.762
  sub_90586                 20.00       0.00       0.10       0.42       9.85       5.51      15.36        0.01     0.01   0.768
  sub_90587                 20.00       0.00       0.09       0.47       9.43       6.07      15.50        0.01     0.00   0.775
  sub_90588                 20.00       0.00       0.10       0.32      10.85       4.18      15.02        0.01     0.00   0.751
  sub_90589                 20.00       0.00       0.09       0.53       8.86       6.83      15.69        0.01     0.01   0.785
  sub_90590                 20.00       0.00       0.09       0.51       9.05       6.58      15.63        0.02     0.01   0.781
  sub_90591                 20.00       0.00       0.10       0.34      10.62       4.48      15.10        0.01     0.01   0.755
  sub_90592                 20.00       0.00       0.10       0.33      10.73       4.34      15.07        0.01     0.01   0.753
  sub_90593                 20.00       0.00       0.09       0.45       9.58       5.88      15.45        0.01     0.00   0.773
  sub_90594                 20.00       0.00       0.09       0.56       8.55       7.25      15.80        0.02     0.01   0.790
  sub_90595                 20.00       0.00       0.09       0.56       8.50       7.32      15.82        0.02     0.01   0.791
  sub_90596                 20.00       0.00       0.10       0.32      10.87       4.15      15.02        0.01     0.00   0.751
  sub_90597                 20.00       0.00       0.09       0.75       6.69       9.74      16.43        0.01     0.00   0.821
  sub_90598                 20.00       0.00       0.09       0.74       6.74       9.66      16.41        0.01     0.00   0.820
  sub_90599                 20.00       0.00       0.09       0.55       8.66       7.10      15.76        0.01     0.00   0.788
  sub_90600                 20.00       0.00       0.09       0.50       9.14       6.45      15.60        0.01     0.00   0.780
  sub_90601                 20.00       0.00       0.09       0.83       5.92      10.77      16.69        0.01     0.00   0.834
  sub_90602                 20.00       0.00       0.09       0.62       7.98       8.01      15.99        0.01     0.00   0.800
  sub_90603                 20.00       0.00       0.09       0.78       6.37      10.17      16.54        0.01     0.00   0.827
  sub_90604                 20.00       0.00       0.09       0.52       8.89       6.79      15.68        0.01     0.00   0.784
  sub_90605                 20.00       0.00       0.09       0.52       8.97       6.69      15.66        0.03     0.01   0.783
  sub_90606                 20.00       0.00       0.09       0.58       8.35       7.52      15.87        0.01     0.00   0.793
  sub_90607                 20.00       0.00       0.09       0.60       8.13       7.81      15.94        0.01     0.00   0.797
  sub_90608                 20.00       0.00       0.09       0.72       6.99       9.34      16.33        0.01     0.00   0.816
  sub_90609                 20.00       0.00       0.09       0.85       5.77      10.97      16.74        0.01     0.00   0.837
  sub_90610                 20.00       0.00       0.09       0.82       6.02      10.64      16.65        0.01     0.00   0.833
  sub_90611                 20.00       0.00       0.09       0.73       6.86       9.51      16.37        0.01     0.00   0.818
  sub_90612                 20.00       0.00       0.09       0.83       5.94      10.74      16.68        0.01     0.00   0.834
  sub_90613                 20.00       0.00       0.09       0.88       5.41      11.45      16.86        0.02     0.01   0.843
  sub_90615                 20.00       0.00       0.09       0.75       6.68       9.75      16.43        0.03     0.01   0.821
  sub_90616                 20.00       0.00       0.10       0.38      10.24       4.99      15.23        0.02     0.01   0.761
  sub_90617                 20.00       0.00       0.09       0.50       9.14       6.46      15.60        0.02     0.01   0.780
  sub_90618                 20.00       0.00       0.10       0.32      10.86       4.16      15.02        0.03     0.01   0.751
  sub_90619                 20.00       0.00       0.10       0.05      13.47       0.67      14.14        0.01     0.00   0.707
  sub_90620                 20.00       0.00       0.10       0.34      10.70       4.38      15.08        0.01     0.00   0.754
  sub_90621                 20.00       0.00       0.09       0.71       7.05       9.25      16.31        0.03     0.01   0.815
  sub_90623                 20.00       0.00       0.09       0.61       8.05       7.92      15.97        0.03     0.01   0.798
  sub_90624                 20.00       0.00       0.09       0.59       8.26       7.64      15.90        0.01     0.00   0.795
  sub_90625                 20.00       0.00       0.09       0.50       9.10       6.52      15.61        0.01     0.00   0.781
  sub_90626                 20.00       0.00       0.09       0.45       9.63       5.81      15.44        0.01     0.00   0.772
  sub_90627                 20.00       0.00       0.09       0.79       6.27      10.30      16.57        0.02     0.01   0.828
  sub_90628                 20.00       0.00       0.09       0.65       7.66       8.43      16.10        0.03     0.01   0.805
  sub_90629                 20.00       0.00       0.09       0.75       6.65       9.79      16.44        0.02     0.01   0.822
  sub_90630                 20.00       0.00       0.10       0.32      10.88       4.13      15.01        0.01     0.00   0.751
  sub_90631                 20.00       0.00       0.09       0.50       9.14       6.46      15.60        0.01     0.00   0.780
  sub_90632                 20.00       0.00       0.09       0.52       8.97       6.69      15.66        0.01     0.00   0.783
  sub_90633                 20.00       0.00       0.10       0.32      10.90       4.11      15.01        0.01     0.01   0.750
  sub_90634                 20.00       0.00       0.09       0.48       9.31       6.23      15.54        0.01     0.00   0.777
  sub_90635                 20.00       0.00       0.09       0.70       7.15       9.12      16.27        0.01     0.00   0.814
  sub_90636                 20.00       0.00       0.09       0.53       8.81       6.90      15.71        0.01     0.01   0.786
  sub_90637                 20.00       0.00       0.09       0.49       9.18       6.40      15.59        0.02     0.01   0.779
  sub_90638                 20.00       0.00       0.10       0.29      11.18       3.74      14.91        0.02     0.01   0.746
  sub_90639                 20.00       0.00       0.09       0.75       6.67       9.76      16.43        0.02     0.01   0.822
  sub_90640                 20.00       0.00       0.10       0.38      10.31       4.90      15.21        0.02     0.01   0.760
  sub_90641                 20.00       0.00       0.09       0.46       9.46       6.03      15.49        0.02     0.01   0.775
  sub_90642                 20.00       0.00       0.09       0.59       8.28       7.61      15.89        0.01     0.00   0.795
  sub_90643                 20.00       0.00       0.10       0.38      10.32       4.88      15.20        0.03     0.01   0.760
  sub_90644                 20.00       0.00       0.10       0.33      10.82       4.22      15.03        0.01     0.01   0.752
  sub_90645                 20.00       0.00       0.09       0.46       9.50       5.98      15.48        0.01     0.00   0.774
  sub_90646                 20.00       0.00       0.09       0.86       5.59      11.21      16.80        0.01     0.00   0.840
  sub_90647                 20.00       0.00       0.09       1.19       2.44      15.42      17.86        0.02     0.01   0.893
  sub_90648                 20.00       0.00       0.10       0.31      10.93       4.06      15.00        0.01     0.00   0.750
  sub_90649                 20.00       0.00       0.09       0.46       9.49       5.99      15.48        0.02     0.01   0.774
  sub_90650                 20.00       0.00       0.09       0.45       9.57       5.89      15.46        0.03     0.01   0.773
  sub_90651                 20.00       0.00       0.10       0.37      10.34       4.85      15.19        0.02     0.01   0.760
  sub_90652                 20.00       0.00       0.09       0.47       9.38       6.14      15.52        0.01     0.00   0.776
  sub_90653                 20.00       0.00       0.09       0.58       8.38       7.47      15.86        0.01     0.00   0.793
  sub_90654                 20.00       0.00       0.09       0.66       7.57       8.56      16.13        0.00     0.00   0.807
  sub_90655                 20.00       0.00       0.10       0.43       9.82       5.55      15.37        0.02     0.01   0.769
  sub_90656                 20.00       0.00       0.09       0.76       6.60       9.86      16.46        0.02     0.01   0.823
  sub_90657                 20.00       0.00       0.09       0.80       6.22      10.36      16.58        0.02     0.01   0.829
  sub_90658                 20.00       0.00       0.09       0.46       9.55       5.92      15.46        0.02     0.01   0.773
  sub_90659                 20.00       0.00       0.09       1.04       3.85      13.53      17.38        0.01     0.00   0.869
  sub_90662                 20.00       0.00       0.09       0.53       8.80       6.92      15.72        0.00     0.00   0.786
  sub_90663                 20.00       0.00       0.09       0.73       6.90       9.45      16.35        0.04     0.01   0.818
  sub_90664                 20.00       0.00       0.08       1.44       0.00      18.68      18.68        0.00     0.00   0.934
  sub_90665                 20.00       0.00       0.09       0.67       7.44       8.73      16.17        0.01     0.01   0.809
  sub_90669                 20.00       0.00       0.09       0.54       8.68       7.07      15.75        0.01     0.00   0.788
  sub_90670                 20.00       0.00       0.10       0.40      10.10       5.17      15.28        0.01     0.00   0.764
  sub_90671                 20.00       0.00       0.09       0.44       9.72       5.69      15.41        0.00     0.00   0.770
  sub_90672                 20.00       0.00       0.09       0.58       8.32       7.56      15.88        0.01     0.00   0.794
  sub_90673                 20.00       0.00       0.09       0.74       6.77       9.63      16.40        0.02     0.01   0.820
  sub_90674                 20.00       0.00       0.10       0.21      11.89       2.79      14.67        0.02     0.01   0.734
  sub_90675                 20.00       0.00       0.10       0.33      10.79       4.25      15.04        0.02     0.01   0.752
  sub_90676                 20.00       0.00       0.09       0.48       9.27       6.28      15.55        0.02     0.01   0.778
  sub_90677                 20.00       0.00       0.09       0.71       7.11       9.18      16.29        0.01     0.00   0.814
  sub_90678                 20.00       0.00       0.09       0.63       7.82       8.22      16.04        0.01     0.00   0.802
  sub_90679                 20.00       0.00       0.09       0.70       7.21       9.04      16.25        0.03     0.01   0.813
  sub_90680                 20.00       0.00       0.10       0.40      10.09       5.19      15.28        0.02     0.01   0.764
  sub_90681                 20.00       0.00       0.09       0.71       7.10       9.19      16.29        0.01     0.00   0.814
  sub_90682                 20.00       0.00       0.09       0.64       7.79       8.26      16.05        0.02     0.01   0.803
  sub_90683                 20.00       0.00       0.09       1.05       3.77      13.64      17.41        0.01     0.00   0.871
  sub_90684                 20.00       0.00       0.10       0.23      11.70       3.04      14.74        0.01     0.00   0.737
  sub_90685                 20.00       0.00       0.10       0.17      12.31       2.22      14.53        0.01     0.00   0.727
  sub_90686                 20.00       0.00       0.09       0.63       7.82       8.22      16.04        0.01     0.00   0.802
  sub_90688                 20.00       0.00       0.09       0.48       9.31       6.23      15.54        0.01     0.00   0.777
  sub_90689                 20.00       0.00       0.09       0.77       6.52       9.96      16.48        0.01     0.00   0.824
  sub_90690                 20.00       0.00       0.09       0.60       8.13       7.81      15.94        0.01     0.00   0.797
  sub_90691                 20.00       0.00       0.09       0.52       8.95       6.71      15.66        0.01     0.00   0.783
  sub_90692                 20.00       0.00       0.09       0.45       9.62       5.81      15.44        0.01     0.00   0.772
  sub_90693                 20.00       0.00       0.09       0.85       5.75      10.99      16.74        0.01     0.00   0.837
  sub_90694                 20.00       0.00       0.09       1.16       2.70      15.07      17.77        0.01     0.00   0.889
  sub_90695                 20.00       0.00       0.09       0.65       7.68       8.41      16.09        0.01     0.00   0.805
  sub_90696                 20.00       0.00       0.09       0.72       6.99       9.34      16.33        0.01     0.00   0.816
  sub_90697                 20.00       0.00       0.09       0.74       6.79       9.61      16.39        0.01     0.00   0.820
  sub_90698                 20.00       0.00       0.09       0.84       5.86      10.85      16.71        0.01     0.00   0.835
  sub_90699                 20.00       0.00       0.09       0.99       4.34      12.89      17.22        0.00     0.00   0.861
  sub_90700                 20.00       0.00       0.10       0.27      11.31       3.56      14.87        0.00     0.00   0.743
  sub_90701                 20.00       0.00       0.10       0.25      11.51       3.30      14.80        0.00     0.00   0.740
  sub_90702                 20.00       0.00       0.10       0.29      11.18       3.74      14.91        0.00     0.00   0.746
  sub_90703                 20.00       0.00       0.09       0.74       6.80       9.59      16.39        0.01     0.00   0.820
  sub_90704                 20.00       0.00       0.09       0.71       7.07       9.23      16.30        0.01     0.00   0.815
  sub_90705                 20.00       0.00       0.09       0.77       6.51       9.98      16.49        0.02     0.01   0.824
  sub_90706                 20.00       0.00       0.09       0.53       8.86       6.84      15.69        0.01     0.00   0.785
  sub_90707                 20.00       0.00       0.10       0.35      10.56       4.56      15.12        0.01     0.00   0.756
  sub_90708                 20.00       0.00       0.09       0.86       5.67      11.10      16.77        0.02     0.01   0.839
  sub_90709                 20.00       0.00       0.09       0.63       7.82       8.22      16.04        0.02     0.01   0.802
  sub_90710                 20.00       0.00       0.09       0.83       5.95      10.73      16.68        0.03     0.01   0.834
  sub_90724                 20.00       0.00       0.09       0.86       5.59      11.21      16.80        0.01     0.00   0.840
  sub_90725                 20.00       0.00       0.08       1.44       0.00      18.68      18.68        0.00     0.00   0.934
  sub_90726                 20.00       0.00       0.08       1.44       0.00      18.68      18.68        0.00     0.00   0.934
  sub_90727                 20.00       0.00       0.08       1.44       0.00      18.68      18.68        0.00     0.00   0.934
  sub_90728                 20.00       0.00       0.08       1.44       0.00      18.68      18.68        0.01     0.00   0.934
  sub_90729                 20.00       0.00       0.08       1.44       0.00      18.68      18.68        0.00     0.00   0.934
  sub_90730                 20.00       0.00       0.08       1.44       0.00      18.68      18.68        0.01     0.00   0.934
  sub_90731                 20.00       0.00       0.08       1.44       0.00      18.68      18.68        0.01     0.00   0.934
  sub_90732                 20.00       0.00       0.08       1.44       0.00      18.68      18.68        0.00     0.00   0.934
  sub_90733                 20.00       0.00       0.10       0.42       9.86       5.50      15.36        0.01     0.00   0.768
  
  
  ******************
  Node Depth Summary
  ******************
  
  ---------------------------------------------------------------------------------
                                 Average  Maximum  Maximum  Time of Max    Reported
                                   Depth    Depth      HGL   Occurrence   Max Depth
  Node                 Type       Meters   Meters   Meters  days hr:min      Meters
  ---------------------------------------------------------------------------------
  j_9006F              JUNCTION     0.14     0.39     0.03     0  01:25        0.39
  j_90334              JUNCTION     0.04     0.10    -0.11     0  01:25        0.10
  j_90335              JUNCTION     0.10     0.26    -0.15     0  01:25        0.26
  j_90336              JUNCTION     0.08     0.19     0.02     0  01:25        0.19
  j_90363              JUNCTION     0.12     0.22    -0.13     0  01:25        0.22
  j_90364              JUNCTION     0.11     0.22    -0.13     0  01:25        0.22
  j_90365              JUNCTION     0.11     0.22    -0.13     0  01:25        0.22
  j_90366              JUNCTION     0.06     0.17    -0.14     0  01:25        0.17
  j_90367              JUNCTION     0.15     0.34    -0.15     0  01:25        0.34
  j_90368              JUNCTION     0.04     0.15    -0.14     0  01:25        0.14
  j_90369              JUNCTION     0.05     0.15    -0.15     0  01:25        0.15
  j_90370              JUNCTION     0.16     0.36    -0.15     0  01:25        0.36
  j_90371              JUNCTION     0.18     0.40    -0.16     0  01:25        0.40
  j_90372              JUNCTION     0.03     0.09    -0.16     0  01:25        0.09
  j_90373              JUNCTION     0.12     0.31    -0.16     0  01:25        0.31
  j_90374              JUNCTION     0.04     0.12    -0.16     0  01:25        0.12
  j_90375              JUNCTION     0.07     0.18    -0.16     0  01:25        0.18
  j_90376              JUNCTION     0.03     0.06    -0.09     0  01:25        0.06
  j_90377              JUNCTION     0.02     0.06    -0.11     0  01:25        0.06
  j_90378              JUNCTION     0.06     0.14    -0.26     0  01:25        0.14
  j_90379              JUNCTION     0.04     0.09    -0.16     0  01:25        0.09
  j_90380              JUNCTION     0.04     0.10    -0.23     0  01:25        0.10
  j_90381              JUNCTION     0.09     0.18    -0.27     0  01:25        0.18
  j_90382              JUNCTION     0.27     0.62    -0.30     0  01:25        0.62
  j_90383              JUNCTION     0.24     0.55    -0.27     0  01:25        0.55
  j_90384              JUNCTION     0.11     0.22    -0.24     0  01:25        0.22
  j_90385              JUNCTION     0.05     0.12    -0.25     0  01:25        0.12
  j_90386              JUNCTION     0.04     0.09    -0.14     0  01:25        0.09
  j_90387              JUNCTION     0.03     0.07    -0.13     0  01:25        0.07
  j_90388              JUNCTION     0.10     0.21    -0.18     0  01:25        0.21
  j_90389              JUNCTION     0.18     0.41    -0.20     0  01:25        0.41
  j_90390              JUNCTION     0.17     0.39    -0.18     0  01:25        0.39
  j_90391              JUNCTION     0.11     0.22    -0.02     0  01:25        0.22
  j_90392              JUNCTION     0.12     0.24    -0.01     0  01:25        0.24
  j_90393              JUNCTION     0.09     0.20     0.01     0  01:25        0.20
  j_90394              JUNCTION     0.05     0.13     0.03     0  01:25        0.13
  j_90395              JUNCTION     0.05     0.12     0.04     0  01:25        0.12
  j_90396              JUNCTION     0.02     0.06     0.04     0  01:25        0.06
  j_90397              JUNCTION     0.23     0.53    -0.24     0  01:25        0.53
  j_90398              JUNCTION     0.15     0.39    -0.23     0  01:25        0.39
  j_90399              JUNCTION     0.04     0.09    -0.22     0  01:25        0.09
  j_90400              JUNCTION     0.02     0.05    -0.21     0  01:25        0.05
  j_90401              JUNCTION     0.04     0.08    -0.23     0  01:25        0.08
  j_90402              JUNCTION     0.04     0.09    -0.27     0  01:25        0.09
  j_90403              JUNCTION     0.02     0.04    -0.21     0  01:25        0.04
  j_90404              JUNCTION     0.03     0.09    -0.21     0  01:25        0.09
  j_90405              JUNCTION     0.12     0.33    -0.23     0  01:25        0.33
  j_90406              JUNCTION     0.10     0.28    -0.22     0  01:25        0.28
  j_90407              JUNCTION     0.06     0.19    -0.22     0  01:25        0.19
  j_90408              JUNCTION     0.04     0.11    -0.21     0  01:25        0.11
  j_90427              JUNCTION     0.18     0.45     0.02     0  01:25        0.45
  j_90428              JUNCTION     0.14     0.39     0.02     0  01:25        0.39
  j_90430              JUNCTION     0.07     0.17    -1.40     0  01:25        0.17
  j_90433              JUNCTION     0.07     0.15    -0.22     0  01:24        0.15
  j_90434              JUNCTION     0.12     0.21    -0.22     0  01:24        0.21
  j_90435              JUNCTION     0.06     0.13    -0.24     0  01:25        0.13
  j_90436              JUNCTION     0.09     0.19    -0.27     0  01:25        0.19
  j_90437              JUNCTION     0.32     0.69    -0.67     0  01:25        0.69
  j_90438              JUNCTION     0.38     0.80    -0.55     0  01:25        0.80
  j_90439              JUNCTION     0.05     0.14    -0.07     0  01:25        0.14
  j_90440              JUNCTION     0.05     0.18     0.02     0  01:25        0.18
  j_90441              JUNCTION     0.02     0.05    -0.08     0  01:25        0.05
  j_90442              JUNCTION     0.27     0.56    -0.08     0  01:25        0.56
  j_90443              JUNCTION     0.39     0.83    -0.47     0  01:25        0.83
  j_90444              JUNCTION     0.29     0.71    -0.40     0  01:25        0.71
  j_90445              JUNCTION     0.06     0.14    -0.29     0  01:25        0.14
  j_90446              JUNCTION     0.05     0.12    -0.24     0  01:25        0.12
  j_90447              JUNCTION     0.04     0.10    -0.15     0  01:25        0.10
  j_90448              JUNCTION     0.04     0.09    -0.18     0  01:25        0.09
  j_90449              JUNCTION     0.07     0.13    -0.35     0  01:25        0.13
  j_90450              JUNCTION     0.05     0.10    -0.37     0  00:57        0.10
  j_90451              JUNCTION     0.27     0.65    -0.37     0  01:25        0.65
  j_90452              JUNCTION     0.05     0.12    -0.30     0  01:25        0.12
  j_90453              JUNCTION     0.27     0.63    -0.33     0  01:25        0.63
  j_90454              JUNCTION     0.06     0.14    -0.33     0  01:25        0.14
  j_90455              JUNCTION     0.08     0.17    -0.37     0  01:25        0.17
  j_90456              JUNCTION     0.12     0.28    -0.38     0  01:25        0.28
  j_90457              JUNCTION     0.15     0.35    -0.41     0  01:25        0.35
  j_90459              JUNCTION     0.25     0.61    -0.44     0  01:25        0.61
  j_90460              JUNCTION     0.21     0.54    -0.42     0  01:25        0.54
  j_90461              JUNCTION     0.29     0.66    -0.42     0  01:25        0.66
  j_90462              JUNCTION     0.25     0.61    -0.37     0  01:25        0.61
  j_90463              JUNCTION     0.15     0.41    -0.32     0  01:25        0.41
  j_90464              JUNCTION     0.11     0.31    -0.32     0  01:25        0.31
  j_90465              JUNCTION     0.08     0.23    -0.31     0  01:25        0.23
  j_90466              JUNCTION     0.05     0.15    -0.29     0  01:25        0.15
  j_90467              JUNCTION     0.08     0.19    -0.23     0  01:25        0.19
  j_90468              JUNCTION     0.11     0.28    -0.24     0  01:25        0.28
  j_90469              JUNCTION     0.11     0.30    -0.26     0  01:25        0.30
  j_90470              JUNCTION     0.15     0.39    -0.28     0  01:25        0.39
  j_90471              JUNCTION     0.16     0.42    -0.28     0  01:25        0.42
  j_90477              JUNCTION     0.11     0.34     0.03     0  01:25        0.34
  j_90478              JUNCTION     0.17     0.44     0.03     0  01:25        0.44
  j_90479              JUNCTION     0.11     0.35     0.03     0  01:25        0.35
  j_90480              JUNCTION     0.09     0.28     0.03     0  01:25        0.28
  j_90481              JUNCTION     0.17     0.43     0.03     0  01:25        0.43
  j_90482              JUNCTION     0.19     0.48     0.03     0  01:25        0.48
  j_90483              JUNCTION     0.11     0.31     0.03     0  01:25        0.31
  j_90484              JUNCTION     0.07     0.23     0.03     0  01:25        0.23
  j_90485              JUNCTION     0.13     0.35     0.02     0  01:25        0.35
  j_90486              JUNCTION     0.20     0.48     0.02     0  01:25        0.48
  j_90487              JUNCTION     0.22     0.52     0.00     0  01:25        0.52
  j_90488              JUNCTION     0.26     0.57    -0.03     0  01:25        0.57
  j_90489              JUNCTION     0.07     0.22    -0.01     0  01:25        0.22
  j_90490              JUNCTION     0.11     0.32     0.01     0  01:25        0.32
  j_90491              JUNCTION     0.25     0.56     0.02     0  01:25        0.56
  j_90492              JUNCTION     0.29     0.63     0.01     0  01:25        0.63
  j_90493              JUNCTION     0.11     0.33     0.01     0  01:25        0.33
  j_90494              JUNCTION     0.35     0.74    -0.00     0  01:25        0.74
  j_90495              JUNCTION     0.34     0.72     0.01     0  01:25        0.72
  j_90496              JUNCTION     0.12     0.33     0.01     0  01:25        0.33
  j_90497              JUNCTION     0.05     0.17    -0.01     0  01:25        0.17
  j_90498              JUNCTION     0.18     0.46    -0.02     0  01:25        0.46
  j_90499              JUNCTION     0.19     0.46    -0.01     0  01:25        0.46
  j_90500              JUNCTION     0.14     0.38    -0.00     0  01:25        0.38
  j_90501              JUNCTION     0.10     0.29     0.02     0  01:25        0.29
  j_90502              JUNCTION     0.08     0.25     0.02     0  01:25        0.25
  j_90503              JUNCTION     0.08     0.25     0.02     0  01:25        0.25
  j_90504              JUNCTION     0.12     0.31     0.03     0  01:25        0.31
  j_90505              JUNCTION     0.21     0.52     0.02     0  01:25        0.52
  j_90506              JUNCTION     0.23     0.54     0.03     0  01:25        0.54
  j_90507              JUNCTION     0.14     0.40     0.03     0  01:25        0.40
  j_90508              JUNCTION     0.19     0.48     0.03     0  01:25        0.48
  j_90509              JUNCTION     0.09     0.28     0.03     0  01:25        0.28
  j_90510              JUNCTION     0.12     0.36     0.05     0  01:25        0.36
  j_90511              JUNCTION     0.30     0.64     0.05     0  01:25        0.64
  j_90512              JUNCTION     0.26     0.59     0.05     0  01:25        0.59
  j_90513              JUNCTION     0.09     0.27     0.01     0  01:25        0.27
  j_90514              JUNCTION     0.11     0.31    -0.01     0  01:25        0.31
  j_90515              JUNCTION     0.15     0.36    -0.05     0  01:25        0.36
  j_90516              JUNCTION     0.14     0.29    -0.15     0  01:25        0.29
  j_90517              JUNCTION     0.24     0.59    -0.33     0  01:25        0.59
  j_90518              JUNCTION     0.24     0.57    -0.31     0  01:25        0.57
  j_90519              JUNCTION     0.22     0.54    -0.29     0  01:25        0.54
  j_90520              JUNCTION     0.09     0.20    -0.15     0  01:25        0.20
  j_90521              JUNCTION     0.05     0.11    -0.13     0  01:25        0.11
  j_90522              JUNCTION     0.07     0.15    -0.12     0  01:25        0.15
  j_90523              JUNCTION     0.05     0.12    -0.08     0  01:25        0.12
  j_90524              JUNCTION     0.21     0.51     0.06     0  01:25        0.51
  j_90525              JUNCTION     0.16     0.42     0.07     0  01:25        0.42
  j_90526              JUNCTION     0.12     0.33     0.07     0  01:25        0.33
  j_90527              JUNCTION     0.08     0.25     0.07     0  01:25        0.25
  j_90549              JUNCTION     0.07     0.16    -0.25     0  01:25        0.16
  j_90550              JUNCTION     0.44     0.81    -0.42     0  01:25        0.81
  j_90551              JUNCTION     0.02     0.05     0.10     0  01:25        0.05
  j_90553              JUNCTION     0.17     0.41     0.03     0  01:25        0.41
  j_90554              JUNCTION     0.13     0.37     0.03     0  01:25        0.37
  j_90555              JUNCTION     0.09     0.27     0.03     0  01:25        0.27
  j_90556              JUNCTION     0.16     0.40     0.03     0  01:25        0.40
  j_90557              JUNCTION     0.17     0.41     0.03     0  01:25        0.41
  j_90558              JUNCTION     0.34     0.73     0.02     0  01:25        0.73
  j_90559              JUNCTION     0.25     0.61     0.03     0  01:25        0.61
  j_90560              JUNCTION     0.24     0.59     0.03     0  01:25        0.59
  j_90561              JUNCTION     0.15     0.41     0.03     0  01:25        0.41
  j_90562              JUNCTION     0.19     0.47     0.02     0  01:25        0.47
  j_90563              JUNCTION     0.32     0.70     0.00     0  01:25        0.70
  j_90564              JUNCTION     0.39     0.81    -0.00     0  01:25        0.81
  j_90565              JUNCTION     0.11     0.34    -0.00     0  01:25        0.34
  j_90566              JUNCTION     0.06     0.20    -0.00     0  01:25        0.20
  j_90567              JUNCTION     0.03     0.07     0.10     0  01:25        0.07
  j_90568              JUNCTION     0.43     0.84    -0.27     0  01:25        0.84
  j_90569              JUNCTION     0.13     0.32    -0.00     0  01:25        0.32
  j_90570              JUNCTION     0.02     0.08    -0.00     0  01:25        0.08
  j_90571              JUNCTION     0.15     0.42    -0.01     0  01:25        0.42
  j_90572              JUNCTION     0.42     0.85    -0.01     0  01:25        0.85
  j_90573              JUNCTION     0.11     0.33    -0.01     0  01:25        0.33
  j_90574              JUNCTION     0.38     0.78    -0.02     0  01:25        0.78
  j_90575              JUNCTION     0.45     0.87    -0.04     0  01:25        0.87
  j_90576              JUNCTION     0.41     0.83    -0.09     0  01:25        0.83
  j_90577              JUNCTION     0.43     0.85    -0.13     0  01:25        0.85
  j_90578              JUNCTION     0.41     0.82    -0.13     0  01:25        0.82
  j_90579              JUNCTION     0.36     0.75    -0.13     0  01:25        0.75
  j_90580              JUNCTION     0.04     0.14     0.01     0  01:25        0.14
  j_90581              JUNCTION     0.08     0.24     0.00     0  01:25        0.24
  j_90582              JUNCTION     0.08     0.24    -0.00     0  01:25        0.24
  j_90583              JUNCTION     0.10     0.30    -0.01     0  01:25        0.30
  j_90584              JUNCTION     0.12     0.35     0.00     0  01:25        0.35
  j_90585              JUNCTION     0.39     0.81    -0.02     0  01:25        0.81
  j_90586              JUNCTION     0.40     0.82     0.00     0  01:25        0.82
  j_90587              JUNCTION     0.38     0.81     0.02     0  01:25        0.81
  j_90588              JUNCTION     0.13     0.38     0.02     0  01:25        0.38
  j_90589              JUNCTION     0.10     0.31     0.03     0  01:25        0.31
  j_90590              JUNCTION     0.09     0.28     0.03     0  01:25        0.28
  j_90591              JUNCTION     0.29     0.66     0.05     0  01:25        0.66
  j_90592              JUNCTION     0.33     0.71     0.04     0  01:25        0.71
  j_90593              JUNCTION     0.39     0.82     0.03     0  01:25        0.82
  j_90594              JUNCTION     0.33     0.74     0.04     0  01:25        0.74
  j_90595              JUNCTION     0.13     0.37     0.03     0  01:25        0.37
  j_90596              JUNCTION     0.12     0.36     0.04     0  01:25        0.36
  j_90597              JUNCTION     0.11     0.32     0.04     0  01:25        0.32
  j_90598              JUNCTION     0.09     0.29     0.04     0  01:25        0.29
  j_90599              JUNCTION     0.12     0.33     0.04     0  01:25        0.33
  j_90600              JUNCTION     0.08     0.26     0.04     0  01:25        0.26
  j_90601              JUNCTION     0.06     0.21     0.04     0  01:25        0.21
  j_90602              JUNCTION     0.11     0.33     0.06     0  01:25        0.33
  j_90603              JUNCTION     0.12     0.35     0.06     0  01:25        0.35
  j_90604              JUNCTION     0.15     0.42     0.06     0  01:25        0.42
  j_90605              JUNCTION     0.21     0.51     0.05     0  01:25        0.51
  j_90606              JUNCTION     0.20     0.49     0.06     0  01:25        0.49
  j_90607              JUNCTION     0.17     0.44     0.06     0  01:25        0.44
  j_90608              JUNCTION     0.14     0.40     0.06     0  01:25        0.40
  j_90609              JUNCTION     0.06     0.23     0.06     0  01:25        0.23
  j_90610              JUNCTION     0.09     0.28     0.06     0  01:25        0.28
  j_90611              JUNCTION     0.11     0.33     0.06     0  01:25        0.33
  j_90612              JUNCTION     0.09     0.27     0.06     0  01:25        0.27
  j_90613              JUNCTION     0.05     0.17     0.07     0  01:25        0.17
  j_90615              JUNCTION     0.04     0.10    -0.19     0  00:44        0.10
  j_90616              JUNCTION     0.06     0.15    -0.17     0  01:25        0.15
  j_90617              JUNCTION     0.03     0.10    -0.13     0  01:25        0.10
  j_90618              JUNCTION     0.09     0.24    -0.13     0  01:25        0.24
  j_90619              JUNCTION     0.44     0.86    -0.14     0  01:25        0.86
  j_90620              JUNCTION     0.49     0.92    -0.13     0  01:25        0.92
  j_90621              JUNCTION     0.44     0.87    -0.11     0  01:25        0.87
  j_90623              JUNCTION     0.39     0.82    -0.08     0  01:25        0.82
  j_90624              JUNCTION     0.31     0.71    -0.08     0  01:25        0.71
  j_90625              JUNCTION     0.27     0.65    -0.05     0  01:25        0.65
  j_90626              JUNCTION     0.34     0.76    -0.06     0  01:25        0.76
  j_90627              JUNCTION     0.39     0.81    -0.07     0  01:25        0.81
  j_90628              JUNCTION     0.12     0.36    -0.05     0  01:25        0.36
  j_90629              JUNCTION     0.10     0.30    -0.05     0  01:25        0.30
  j_90630              JUNCTION     0.05     0.12    -0.07     0  01:13        0.12
  j_90631              JUNCTION     0.13     0.38    -0.04     0  01:25        0.38
  j_90632              JUNCTION     0.15     0.41    -0.04     0  01:25        0.41
  j_90633              JUNCTION     0.15     0.44    -0.04     0  01:25        0.44
  j_90634              JUNCTION     0.41     0.83    -0.05     0  01:25        0.83
  j_90635              JUNCTION     0.27     0.65    -0.05     0  01:25        0.65
  j_90636              JUNCTION     0.21     0.53    -0.04     0  01:25        0.53
  j_90637              JUNCTION     0.29     0.67    -0.04     0  01:25        0.67
  j_90638              JUNCTION     0.17     0.45    -0.03     0  01:25        0.45
  j_90639              JUNCTION     0.14     0.37    -0.03     0  01:25        0.37
  j_90640              JUNCTION     0.08     0.26    -0.03     0  01:25        0.26
  j_90641              JUNCTION     0.33     0.71    -0.13     0  01:25        0.71
  j_90642              JUNCTION     0.26     0.61    -0.12     0  01:25        0.61
  j_90643              JUNCTION     0.25     0.60    -0.12     0  01:25        0.60
  j_90644              JUNCTION     0.04     0.10    -0.05     0  01:18        0.10
  j_90645              JUNCTION     0.02     0.04     0.11     0  01:25        0.04
  j_90646              JUNCTION     0.07     0.14     0.04     0  01:25        0.14
  j_90647              JUNCTION     0.03     0.06     0.09     0  01:25        0.06
  j_90648              JUNCTION     0.08     0.27    -0.02     0  01:25        0.27
  j_90649              JUNCTION     0.07     0.19    -0.02     0  01:25        0.19
  j_90650              JUNCTION     0.13     0.36    -0.02     0  01:25        0.36
  j_90651              JUNCTION     0.14     0.40    -0.04     0  01:25        0.40
  j_90652              JUNCTION     0.13     0.38    -0.04     0  01:25        0.38
  j_90653              JUNCTION     0.05     0.20    -0.04     0  01:25        0.20
  j_90654              JUNCTION     0.26     0.60    -0.00     0  01:25        0.60
  j_90655              JUNCTION     0.30     0.65    -0.01     0  01:25        0.65
  j_90656              JUNCTION     0.30     0.67    -0.02     0  01:25        0.67
  j_90657              JUNCTION     0.03     0.06     0.29     0  01:25        0.06
  j_90658              JUNCTION     0.04     0.09     0.22     0  01:25        0.09
  j_90659              JUNCTION     0.04     0.10     0.12     0  01:25        0.10
  j_90662              JUNCTION     0.04     0.12    -0.20     0  01:25        0.12
  j_90663              JUNCTION     0.17     0.46     0.03     0  01:25        0.46
  j_90664              JUNCTION     0.07     0.25    -0.02     0  01:25        0.25
  j_90665              JUNCTION     0.42     0.84    -0.13     0  01:25        0.84
  j_90669              JUNCTION     0.17     0.34     0.11     0  01:25        0.34
  j_90670              JUNCTION     0.19     0.36     0.11     0  01:25        0.36
  j_90671              JUNCTION     0.20     0.37     0.11     0  01:25        0.37
  j_90672              JUNCTION     0.19     0.47     0.01     0  01:25        0.47
  j_90673              JUNCTION     0.24     0.54     0.01     0  01:25        0.54
  j_90674              JUNCTION     0.26     0.60     0.00     0  01:25        0.60
  j_90675              JUNCTION     0.16     0.32     0.10     0  01:25        0.32
  j_90676              JUNCTION     0.18     0.35     0.11     0  01:25        0.35
  j_90677              JUNCTION     0.23     0.40     0.11     0  01:25        0.40
  j_90678              JUNCTION     0.08     0.22     0.12     0  01:25        0.22
  j_90679              JUNCTION     0.05     0.14     0.12     0  01:25        0.14
  j_90680              JUNCTION     0.16     0.37     0.07     0  01:25        0.37
  j_90681              JUNCTION     0.20     0.42     0.04     0  01:25        0.42
  j_90682              JUNCTION     0.02     0.07     0.04     0  01:25        0.07
  j_90683              JUNCTION     0.20     0.48     0.03     0  01:25        0.48
  j_90684              JUNCTION     0.14     0.39     0.03     0  01:25        0.39
  j_90685              JUNCTION     0.02     0.05     0.16     0  01:25        0.05
  j_90686              JUNCTION     0.17     0.43     0.03     0  01:25        0.43
  j_90688              JUNCTION     0.02     0.05     0.50     0  01:25        0.05
  j_90689              JUNCTION     0.06     0.13    -0.17     0  01:25        0.13
  j_90690              JUNCTION     0.05     0.12    -0.13     0  01:25        0.12
  j_90691              JUNCTION     0.03     0.07     0.17     0  01:25        0.07
  j_90692              JUNCTION     0.02     0.05     0.25     0  01:25        0.05
  j_90693              JUNCTION     0.01     0.03     0.06     0  01:25        0.03
  j_90694              JUNCTION     0.03     0.06     0.12     0  01:25        0.06
  j_90695              JUNCTION     0.02     0.05     0.55     0  01:25        0.05
  j_90696              JUNCTION     0.03     0.07     0.07     0  01:25        0.07
  j_90697              JUNCTION     0.04     0.09     0.02     0  01:25        0.09
  j_90698              JUNCTION     0.05     0.10    -0.02     0  01:25        0.10
  j_90699              JUNCTION     0.05     0.11    -0.07     0  01:25        0.11
  j_90700              JUNCTION     0.01     0.03     0.53     0  01:25        0.03
  j_90701              JUNCTION     0.01     0.03     0.53     0  01:25        0.03
  j_90702              JUNCTION     0.01     0.03     0.53     0  01:25        0.03
  j_90703              JUNCTION     0.21     0.51     0.03     0  01:25        0.51
  j_90704              JUNCTION     0.08     0.25     0.03     0  01:25        0.25
  j_90705              JUNCTION     0.09     0.29     0.03     0  01:25        0.29
  j_90706              JUNCTION     0.26     0.59     0.05     0  01:25        0.59
  j_90707              JUNCTION     0.17     0.43     0.05     0  01:25        0.43
  j_90708              JUNCTION     0.05     0.17     0.06     0  01:25        0.17
  j_90709              JUNCTION     0.09     0.26     0.06     0  01:25        0.26
  j_90710              JUNCTION     0.04     0.12     0.07     0  01:25        0.12
  j_90724              JUNCTION     0.20     0.37     0.11     0  01:25        0.37
  j_90725              JUNCTION     0.04     0.11     0.11     0  01:25        0.11
  j_90726              JUNCTION     0.02     0.06     0.11     0  01:25        0.06
  j_90727              JUNCTION     0.01     0.03     0.13     0  01:25        0.03
  j_90728              JUNCTION     0.03     0.06     0.12     0  01:25        0.06
  j_90729              JUNCTION     0.01     0.03     0.26     0  01:25        0.03
  j_90730              JUNCTION     0.08     0.19     0.11     0  01:25        0.19
  j_90731              JUNCTION     0.03     0.05     0.15     0  01:25        0.05
  j_90732              JUNCTION     0.01     0.02     0.17     0  01:25        0.02
  j_90733              JUNCTION     0.11     0.25     0.11     0  01:25        0.25
  j_91272              JUNCTION     0.00     0.00     0.17     0  00:00        0.00
  j_91273              JUNCTION     0.00     0.00     0.47     0  00:00        0.00
  j_91274              JUNCTION     0.00     0.00     0.23     0  00:00        0.00
  j_91275              JUNCTION     0.00     0.00     0.47     0  00:00        0.00
  j_91276              JUNCTION     0.00     0.00     0.28     0  00:00        0.00
  j_91277              JUNCTION     0.00     0.00     0.51     0  00:00        0.00
  j_91278              JUNCTION     0.00     0.00     0.35     0  00:00        0.00
  j_91279              JUNCTION     0.00     0.00     0.50     0  00:00        0.00
  j_91292              JUNCTION     0.00     0.00    -0.01     0  00:00        0.00
  j_91293              JUNCTION     0.02     0.07    -0.16     0  01:25        0.07
  j_91294              JUNCTION     0.00     0.00     0.31     0  00:00        0.00
  j_90552              OUTFALL      0.00     0.00    -1.29     0  00:00        0.00
  j_90431              OUTFALL      0.07     0.17    -1.44     0  01:25        0.17
  
  
  *******************
  Node Inflow Summary
  *******************
  
  -------------------------------------------------------------------------------------------------
                                  Maximum  Maximum                  Lateral       Total        Flow
                                  Lateral    Total  Time of Max      Inflow      Inflow     Balance
                                   Inflow   Inflow   Occurrence      Volume      Volume       Error
  Node                 Type           CMS      CMS  days hr:min    10^6 ltr    10^6 ltr     Percent
  -------------------------------------------------------------------------------------------------
  j_9006F              JUNCTION     0.002    0.004     0  00:46     0.00606     0.00623       0.000
  j_90334              JUNCTION     0.006    0.006     0  01:25       0.021       0.021       0.000
  j_90335              JUNCTION     0.011    0.011     0  01:25      0.0288      0.0288       0.000
  j_90336              JUNCTION     0.002    0.008     0  01:25     0.00532      0.0245       0.000
  j_90363              JUNCTION     0.012    0.012     0  01:25      0.0322      0.0323       0.000
  j_90364              JUNCTION     0.003    0.022     0  00:46     0.00961      0.0646      -0.147
  j_90365              JUNCTION     0.000    0.003     0  00:27     0.00168     0.00195       2.861
  j_90366              JUNCTION     0.004    0.004     0  01:25       0.011       0.011       0.000
  j_90367              JUNCTION     0.004    0.029     0  01:05      0.0108      0.0865       0.023
  j_90368              JUNCTION     0.000    0.001     0  00:45           0    0.000248       0.876
  j_90369              JUNCTION     0.009    0.009     0  01:25      0.0257      0.0257       0.000
  j_90370              JUNCTION     0.004    0.023     0  01:24      0.0111      0.0656      -0.161
  j_90371              JUNCTION     0.005    0.071     0  01:25      0.0143       0.203      -0.040
  j_90372              JUNCTION     0.002    0.002     0  01:25     0.00644     0.00644       0.000
  j_90373              JUNCTION     0.004    0.013     0  01:24     0.00978      0.0372      -0.032
  j_90374              JUNCTION     0.000    0.002     0  01:26           0     0.00106       0.000
  j_90375              JUNCTION     0.005    0.008     0  01:25      0.0127      0.0216       0.075
  j_90376              JUNCTION     0.001    0.003     0  01:25     0.00219     0.00788       0.000
  j_90377              JUNCTION     0.004    0.007     0  01:25      0.0106      0.0185      -0.383
  j_90378              JUNCTION     0.004    0.011     0  01:25      0.0119      0.0304       0.000
  j_90379              JUNCTION     0.006    0.006     0  01:25      0.0185      0.0185      -0.182
  j_90380              JUNCTION     0.007    0.007     0  01:25      0.0208      0.0208       0.000
  j_90381              JUNCTION     0.004    0.011     0  01:25      0.0125      0.0334       0.597
  j_90382              JUNCTION     0.005    0.166     0  01:25      0.0147       0.492      -0.042
  j_90383              JUNCTION     0.004    0.150     0  01:25      0.0125       0.444      -0.023
  j_90384              JUNCTION     0.002    0.012     0  00:55     0.00737      0.0359       0.403
  j_90385              JUNCTION     0.004    0.010     0  01:25     0.00988      0.0286       0.108
  j_90386              JUNCTION     0.006    0.006     0  01:25      0.0187      0.0187      -0.182
  j_90387              JUNCTION     0.004    0.004     0  01:25      0.0118      0.0118       0.000
  j_90388              JUNCTION     0.003    0.007     0  01:25     0.00723      0.0191       1.237
  j_90389              JUNCTION     0.003    0.105     0  01:25      0.0097       0.308       0.000
  j_90390              JUNCTION     0.002    0.079     0  01:25     0.00541       0.228      -0.019
  j_90391              JUNCTION     0.002    0.023     0  01:25     0.00747      0.0705       0.005
  j_90392              JUNCTION     0.005    0.021     0  01:25      0.0146      0.0631       0.073
  j_90393              JUNCTION     0.008    0.016     0  01:25      0.0239      0.0484      -0.065
  j_90394              JUNCTION     0.002    0.007     0  01:25     0.00756      0.0192       0.003
  j_90395              JUNCTION     0.003    0.004     0  01:25     0.00844      0.0116      -0.023
  j_90396              JUNCTION     0.001    0.001     0  00:44     0.00321     0.00321       0.121
  j_90397              JUNCTION     0.003    0.134     0  01:25      0.0104       0.396      -0.014
  j_90398              JUNCTION     0.004    0.026     0  01:18      0.0118      0.0776      -0.076
  j_90399              JUNCTION     0.004    0.006     0  01:25      0.0117      0.0167       0.731
  j_90400              JUNCTION     0.003    0.003     0  00:44     0.00755     0.00845      -0.092
  j_90401              JUNCTION     0.004    0.005     0  01:25      0.0116      0.0151      -0.012
  j_90402              JUNCTION     0.004    0.005     0  01:25      0.0116      0.0141       0.000
  j_90403              JUNCTION     0.002    0.002     0  01:25     0.00709     0.00709      -0.178
  j_90404              JUNCTION     0.004    0.005     0  01:19      0.0116      0.0153       0.759
  j_90405              JUNCTION     0.004    0.016     0  01:20      0.0125      0.0492       0.028
  j_90406              JUNCTION     0.004    0.012     0  01:19      0.0118      0.0366      -0.286
  j_90407              JUNCTION     0.003    0.003     0  01:25     0.00919     0.00956      -0.208
  j_90408              JUNCTION     0.008    0.008     0  01:25      0.0234      0.0234      -0.124
  j_90427              JUNCTION     0.009    0.018     0  00:52      0.0248       0.041       0.000
  j_90428              JUNCTION     0.005    0.010     0  00:54      0.0144      0.0228      -0.029
  j_90430              JUNCTION     0.003    0.688     0  01:25     0.00736        1.92       0.004
  j_90433              JUNCTION     0.001    0.001     0  01:25     0.00392     0.00393       0.000
  j_90434              JUNCTION     0.003    0.008     0  00:54     0.00829      0.0227       2.030
  j_90435              JUNCTION     0.005    0.013     0  01:24      0.0131      0.0354      -0.011
  j_90436              JUNCTION     0.003    0.032     0  01:25     0.00736      0.0922       0.000
  j_90437              JUNCTION     0.006    0.687     0  01:25      0.0168        1.91       0.007
  j_90438              JUNCTION     0.005    0.637     0  01:25      0.0136        1.77       0.006
  j_90439              JUNCTION     0.003    0.023     0  01:25     0.00783      0.0435       0.000
  j_90440              JUNCTION     0.008    0.016     0  01:25      0.0242      0.0307       0.003
  j_90441              JUNCTION     0.004    0.004     0  01:25      0.0118      0.0118      -0.074
  j_90442              JUNCTION     0.009    0.154     0  01:25      0.0277        0.42       0.022
  j_90443              JUNCTION     0.012    0.609     0  01:25       0.037         1.7      -0.011
  j_90444              JUNCTION     0.005    0.218     0  01:25      0.0136       0.647       0.003
  j_90445              JUNCTION     0.004    0.015     0  01:25      0.0125      0.0428       0.001
  j_90446              JUNCTION     0.004    0.010     0  01:25      0.0118      0.0303       0.090
[...]
  c_906082                1.00   0.11  0.00  0.00  0.89  0.00  0.00  0.00  0.43  0.00
  c_906091                1.00   0.11  0.23  0.00  0.66  0.00  0.00  0.00  0.61  0.00
  c_906101                1.00   0.11  0.23  0.00  0.66  0.00  0.00  0.00  0.46  0.00
  c_906111                1.00   0.11  0.00  0.00  0.66  0.00  0.00  0.24  0.25  0.00
  c_906112                1.00   0.11  0.00  0.00  0.57  0.00  0.00  0.33  0.07  0.00
  c_906121                1.00   0.11  0.28  0.00  0.62  0.00  0.00  0.00  0.56  0.00
  c_906131                1.00   0.38  0.04  0.00  0.58  0.00  0.00  0.00  0.68  0.00
  c_906132                1.00   0.41  0.01  0.00  0.58  0.00  0.00  0.00  0.64  0.00
  c_906151                1.00   0.11  0.00  0.00  0.47  0.00  0.00  0.43  0.28  0.00
  c_906161                1.00   0.11  0.30  0.00  0.60  0.00  0.00  0.00  0.83  0.00
  c_906171                1.00   0.40  0.02  0.00  0.57  0.00  0.00  0.00  0.85  0.00
  c_906181                1.00   0.11  0.32  0.00  0.57  0.00  0.00  0.00  0.72  0.00
  c_906191                1.00   0.11  0.00  0.00  0.89  0.00  0.00  0.00  0.28  0.00
  c_906192                1.00   0.11  0.00  0.00  0.89  0.00  0.00  0.00  0.02  0.00
  c_906201                1.00   0.11  0.00  0.00  0.89  0.00  0.00  0.01  0.00  0.00
  c_906202                1.00   0.11  0.00  0.00  0.43  0.00  0.00  0.46  0.09  0.00
  c_906211                1.00   0.11  0.00  0.00  0.89  0.00  0.00  0.00  0.04  0.00
  c_906231                1.00   0.11  0.00  0.00  0.89  0.00  0.00  0.00  0.21  0.00
  c_906241                1.00   0.21  0.01  0.00  0.77  0.00  0.00  0.01  0.26  0.00
  c_906261                1.00   0.11  0.12  0.00  0.77  0.00  0.00  0.00  0.34  0.00
  c_906271                1.00   0.11  0.00  0.00  0.77  0.00  0.00  0.13  0.05  0.00
  c_906272                1.00   0.11  0.00  0.00  0.89  0.00  0.00  0.00  0.01  0.00
  c_906281                1.00   0.11  0.00  0.00  0.48  0.00  0.00  0.41  0.09  0.00
  c_906291                1.00   0.11  0.25  0.00  0.64  0.00  0.00  0.00  0.46  0.00
  c_906301                1.00   0.11  0.00  0.00  0.14  0.00  0.00  0.76  0.00  0.00
  c_906321                1.00   0.36  0.33  0.00  0.31  0.00  0.00  0.00  0.53  0.00
  c_906322                1.00   0.11  0.00  0.00  0.56  0.00  0.00  0.33  0.00  0.00
  c_906331                1.00   0.11  0.00  0.00  0.89  0.00  0.00  0.00  0.38  0.00
  c_906341                1.00   0.11  0.00  0.00  0.55  0.00  0.00  0.34  0.09  0.00
  c_906342                1.00   0.11  0.00  0.00  0.89  0.00  0.00  0.00  0.00  0.00
  c_906351                1.00   0.23  0.12  0.00  0.65  0.00  0.00  0.00  0.38  0.00
  c_906352                1.00   0.11  0.00  0.00  0.65  0.00  0.00  0.24  0.01  0.00
  c_906361                1.00   0.11  0.00  0.00  0.67  0.00  0.00  0.22  0.18  0.00
  c_906371                1.00   0.11  0.00  0.00  0.89  0.00  0.00  0.00  0.36  0.00
  c_906381                1.00   0.11  0.00  0.00  0.50  0.00  0.00  0.39  0.04  0.00
  c_906391                1.00   0.11  0.01  0.00  0.88  0.00  0.00  0.00  0.49  0.00
  c_906401                1.00   0.11  0.47  0.00  0.40  0.00  0.02  0.00  0.45  0.00
  c_906402                1.00   0.11  0.00  0.00  0.54  0.00  0.00  0.35  0.10  0.00
  c_906411                1.00   0.11  0.02  0.00  0.87  0.00  0.00  0.00  0.21  0.00
  c_906421                1.00   0.13  0.05  0.00  0.82  0.00  0.00  0.00  0.35  0.00
  c_906431                1.00   0.18  0.01  0.00  0.81  0.00  0.00  0.00  0.27  0.00
  c_906441                1.00   0.11  0.00  0.00  0.09  0.00  0.00  0.80  0.01  0.00
  c_906461                1.00   0.11  0.13  0.00  0.76  0.00  0.00  0.00  0.85  0.00
  c_906471                1.00   0.38  0.03  0.00  0.58  0.00  0.00  0.01  0.83  0.00
  c_906481                1.00   0.11  0.27  0.00  0.63  0.00  0.00  0.00  0.61  0.00
  c_906491                1.00   0.48  0.02  0.00  0.50  0.00  0.00  0.00  0.60  0.00
  c_906492                1.00   0.11  0.00  0.00  0.00  0.00  0.00  0.89  0.00  0.00
  c_906501                1.00   0.11  0.00  0.00  0.89  0.00  0.00  0.00  0.66  0.00
  c_906511                1.00   0.11  0.00  0.00  0.89  0.00  0.00  0.00  0.54  0.00
  c_906521                1.00   0.11  0.12  0.00  0.77  0.00  0.00  0.00  0.25  0.00
  c_906531                1.00   0.23  0.13  0.00  0.64  0.00  0.00  0.00  0.63  0.00
  c_906541                1.00   0.11  0.00  0.00  0.89  0.00  0.00  0.00  0.31  0.00
  c_906561                1.00   0.11  0.00  0.00  0.71  0.00  0.18  0.00  0.00  0.00
  c_906562                1.00   0.11  0.00  0.00  0.89  0.00  0.00  0.00  0.00  0.00
  c_906563                1.00   0.11  0.00  0.00  0.50  0.00  0.00  0.40  0.08  0.00
  c_906581                1.00   0.41  0.05  0.00  0.54  0.00  0.00  0.00  0.84  0.00
  c_906591                1.00   0.11  0.00  0.00  0.00  0.00  0.00  0.89  0.00  0.00
  c_906592                1.00   0.11  0.31  0.00  0.59  0.00  0.00  0.00  0.83  0.00
  c_906621                1.00   0.11  0.00  0.00  0.00  0.00  0.00  0.89  0.00  0.00
  c_906622                1.00   0.11  0.00  0.00  0.43  0.47  0.00  0.00  0.63  0.00
  c_906631                1.00   0.11  0.00  0.00  0.48  0.00  0.00  0.41  0.00  0.00
  c_906641                1.00   0.11  0.00  0.00  0.51  0.00  0.00  0.38  0.00  0.00
  c_906651                1.00   0.11  0.00  0.00  0.88  0.00  0.00  0.01  0.00  0.00
  c_906701                1.00   0.11  0.00  0.00  0.89  0.00  0.00  0.00  0.00  0.00
  c_906731                1.00   0.11  0.00  0.00  0.63  0.00  0.00  0.27  0.00  0.00
  c_906741                1.00   0.11  0.00  0.00  0.89  0.00  0.00  0.00  0.00  0.00
  c_906742                1.00   0.11  0.00  0.00  0.89  0.00  0.00  0.00  0.09  0.00
  c_906751                1.00   0.11  0.15  0.00  0.74  0.00  0.00  0.00  0.33  0.00
  c_906761                1.00   0.11  0.00  0.00  0.89  0.00  0.00  0.00  0.00  0.00
  c_906771                1.00   0.11  0.00  0.00  0.89  0.00  0.00  0.00  0.00  0.00
  c_906772                1.00   0.11  0.00  0.00  0.89  0.00  0.00  0.00  0.00  0.00
  c_906781                1.00   0.11  0.14  0.00  0.75  0.00  0.00  0.00  0.46  0.00
  c_906791                1.00   0.25  0.15  0.00  0.61  0.00  0.00  0.00  0.53  0.00
  c_906801                1.00   0.11  0.00  0.00  0.62  0.00  0.00  0.27  0.05  0.00
  c_906811                1.00   0.11  0.00  0.00  0.89  0.00  0.00  0.00  0.43  0.00
  c_906821                1.00   0.11  0.19  0.00  0.70  0.00  0.00  0.00  0.75  0.00
  c_906831                1.00   0.11  0.00  0.00  0.51  0.00  0.00  0.38  0.00  0.00
  c_906832                1.00   0.11  0.00  0.00  0.89  0.00  0.00  0.00  0.43  0.00
  c_906841                1.00   0.11  0.00  0.00  0.57  0.00  0.00  0.32  0.01  0.00
  c_906851                1.00   0.11  0.00  0.00  0.00  0.00  0.00  0.89  0.00  0.00
  c_906861                1.00   0.11  0.10  0.00  0.80  0.00  0.00  0.00  0.36  0.00
  c_906862                1.00   0.20  0.12  0.00  0.68  0.00  0.00  0.00  0.41  0.00
  c_906891                1.00   0.11  0.00  0.00  0.00  0.00  0.00  0.89  0.00  0.00
  c_906892                1.00   0.11  0.00  0.00  0.00  0.00  0.00  0.89  0.00  0.00
  c_906901                1.00   0.11  0.00  0.00  0.89  0.00  0.00  0.00  0.60  0.00
  c_906911                1.00   0.11  0.00  0.00  0.00  0.00  0.00  0.89  0.00  0.00
  c_906921                1.00   0.11  0.19  0.00  0.70  0.00  0.00  0.00  0.85  0.00
  c_906931                1.00   0.30  0.70  0.00  0.00  0.00  0.00  0.00  0.00  0.00
  c_906932                1.00   0.11  0.00  0.00  0.00  0.00  0.00  0.89  0.00  0.00
  c_906941                1.00   0.11  0.89  0.00  0.00  0.00  0.00  0.00  0.00  0.00
  c_906951                1.00   0.11  0.00  0.00  0.00  0.00  0.00  0.89  0.00  0.00
  c_906961                1.00   0.11  0.00  0.00  0.89  0.00  0.00  0.00  0.83  0.00
  c_906971                1.00   0.11  0.00  0.00  0.89  0.00  0.00  0.00  0.84  0.00
  c_906981                1.00   0.11  0.00  0.00  0.89  0.00  0.00  0.00  0.83  0.00
  c_906991                1.00   0.11  0.00  0.00  0.89  0.00  0.00  0.00  0.80  0.00
  c_906992                1.00   0.11  0.12  0.00  0.77  0.00  0.00  0.00  0.81  0.00
  c_907001                1.00   0.11  0.00  0.00  0.00  0.00  0.00  0.89  0.00  0.00
  c_907011                1.00   0.11  0.00  0.00  0.00  0.00  0.00  0.89  0.00  0.00
  c_907021                1.00   0.11  0.00  0.00  0.00  0.00  0.00  0.89  0.00  0.00
  c_907031                1.00   0.11  0.00  0.00  0.89  0.00  0.00  0.00  0.31  0.00
  c_907032                1.00   0.11  0.00  0.00  0.57  0.00  0.00  0.32  0.16  0.00
  c_907033                1.00   0.11  0.00  0.00  0.73  0.00  0.00  0.17  0.13  0.00
  c_907041                1.00   0.11  0.00  0.00  0.54  0.00  0.00  0.35  0.02  0.00
  c_907042                1.00   0.11  0.30  0.00  0.60  0.00  0.00  0.00  0.44  0.00
  c_907051                1.00   0.45  0.23  0.00  0.30  0.00  0.01  0.00  0.03  0.00
  c_907061                1.00   0.11  0.00  0.00  0.89  0.00  0.00  0.00  0.01  0.00
  c_907062                1.00   0.11  0.00  0.00  0.89  0.00  0.00  0.00  0.34  0.00
  c_907071                1.00   0.11  0.00  0.00  0.53  0.00  0.00  0.36  0.00  0.00
  c_907081                1.00   0.11  0.00  0.00  0.43  0.00  0.00  0.46  0.12  0.00
  c_907091                1.00   0.11  0.00  0.00  0.89  0.00  0.00  0.00  0.57  0.00
  c_907101                1.00   0.11  0.20  0.00  0.70  0.00  0.00  0.00  0.72  0.00
  c_907241                1.00   0.11  0.00  0.00  0.89  0.00  0.00  0.00  0.00  0.00
  c_907242                1.00   0.11  0.00  0.00  0.89  0.00  0.00  0.00  0.00  0.00
  c_907251                1.00   0.11  0.00  0.00  0.73  0.00  0.00  0.16  0.58  0.00
  c_907261                1.00   0.11  0.33  0.00  0.57  0.00  0.00  0.00  0.63  0.00
  c_907271                1.00   0.43  0.04  0.00  0.53  0.00  0.00  0.00  0.84  0.00
  c_907281                1.00   0.19  0.81  0.00  0.00  0.00  0.00  0.00  0.00  0.00
  c_907291                1.00   0.19  0.13  0.00  0.68  0.00  0.00  0.00  0.85  0.00
  c_907301                1.00   0.12  0.07  0.00  0.81  0.00  0.00  0.00  0.82  0.00
  c_907311                1.00   0.12  0.12  0.00  0.77  0.00  0.00  0.00  0.83  0.00
  c_907321                1.00   0.23  0.20  0.00  0.56  0.00  0.00  0.00  0.85  0.00
  c_907331                1.00   0.11  0.01  0.00  0.88  0.00  0.00  0.00  0.48  0.00
  c_907332                1.00   0.11  0.00  0.00  0.73  0.00  0.00  0.17  0.16  0.00
  c_912721                1.00   1.00  0.00  0.00  0.00  0.00  0.00  0.00  0.00  0.00
  c_912731                1.00   1.00  0.00  0.00  0.00  0.00  0.00  0.00  0.00  0.00
  c_912741                1.00   1.00  0.00  0.00  0.00  0.00  0.00  0.00  0.00  0.00
  c_912751                1.00   1.00  0.00  0.00  0.00  0.00  0.00  0.00  0.00  0.00
  c_912761                1.00   1.00  0.00  0.00  0.00  0.00  0.00  0.00  0.00  0.00
  c_912771                1.00   1.00  0.00  0.00  0.00  0.00  0.00  0.00  0.00  0.00
  c_912781                1.00   1.00  0.00  0.00  0.00  0.00  0.00  0.00  0.00  0.00
  c_912791                1.00   1.00  0.00  0.00  0.00  0.00  0.00  0.00  0.00  0.00
  c_912931                1.00   0.23  0.77  0.00  0.00  0.00  0.00  0.00  0.00  0.00
  c_912932                1.00   0.22  0.01  0.00  0.34  0.00  0.00  0.43  0.00  0.00
  c_912941                1.00   1.00  0.00  0.00  0.00  0.00  0.00  0.00  0.00  0.00
  
  
  *************************
  Conduit Surcharge Summary
  *************************
  
  ----------------------------------------------------------------------------
                                                           Hours        Hours 
                         --------- Hours Full --------   Above Full   Capacity
  Conduit                Both Ends  Upstream  Dnstream   Normal Flow   Limited
  ----------------------------------------------------------------------------
  c_903642                    0.01      0.01      0.01      0.71         0.01
  c_903981                    0.01      0.01      0.54      0.01         0.01
  c_904381                    0.01      0.01      0.01      0.58         0.01
  c_904421                    0.01      0.01      0.01      0.91         0.01
  c_904441                    0.01      0.01      0.52      0.01         0.01
  c_904592                    0.01      0.01      0.01      0.66         0.01
  c_904821                    0.01      0.01      0.17      0.01         0.01
  c_904822                    0.01      0.01      0.17      0.01         0.01
  c_904861                    0.04      0.04      0.26      0.01         0.01
  c_904871                    0.04      0.04      0.43      0.01         0.01
  c_904881                    0.43      0.43      0.62      0.01         0.01
  c_904921                    0.54      0.54      0.60      0.01         0.01
  c_904922                    0.01      0.01      0.31      0.01         0.01
  c_904951                    0.74      0.74      0.77      0.01         0.01
  c_904952                    0.90      0.90      0.91      0.01         0.01
  c_904961                    0.01      0.01      0.31      0.01         0.01
  c_904991                    0.12      0.13      0.12      0.32         0.11
  c_905001                    0.01      0.01      0.13      0.01         0.01
  c_905051                    0.42      0.42      0.68      0.01         0.01
  c_905061                    0.42      0.42      0.47      0.01         0.01
  c_905071                    0.01      0.01      0.47      0.01         0.01
  c_905081                    0.23      0.23      0.40      0.01         0.01
  c_905111                    0.01      0.01      0.11      0.01         0.01
  c_905121                    0.64      0.64      0.70      0.01         0.01
  c_905131                    0.01      0.01      0.35      0.01         0.01
  c_905161                    0.01      0.01      0.01      0.36         0.01
  c_905171                    0.01      0.01      0.19      0.01         0.01
  c_905182                    0.01      0.01      0.01      0.26         0.01
  c_905241                    0.40      0.40      0.66      0.01         0.01
  c_905251                    0.01      0.01      0.40      0.01         0.01
  c_905521                    0.01      0.01      0.01      0.63         0.01
  c_905571                    0.01      0.01      0.01      0.86         0.01
  c_905581                    0.01      0.01      0.47      0.01         0.01
  c_905591                    0.07      0.07      0.54      0.01         0.01
  c_905601                    0.56      0.56      0.59      0.01         0.01
  c_905602                    0.01      0.01      0.56      0.01         0.01
  c_905621                    0.01      0.01      0.20      0.01         0.01
  c_905622                    0.01      0.01      0.20      0.01         0.01
  c_905631                    0.05      0.05      0.35      0.01         0.01
  c_905632                    0.50      0.50      0.52      1.34         0.01
  c_905641                    0.01      0.01      0.18      0.01         0.01
  c_905651                    0.01      0.01      0.24      0.01         0.01
  c_905721                    0.37      0.37      0.40      0.01         0.01
  c_905722                    0.01      0.01      0.49      0.01         0.01
  c_905732                    0.01      0.01      0.33      0.01         0.01
  c_905741                    0.91      0.91      0.97      0.01         0.01
  c_905751                    0.94      0.94      1.17      0.01         0.01
  c_905752                    0.49      0.49      0.58      0.01         0.01
  c_905781                    0.44      0.44      0.53      0.01         0.01
  c_905791                    0.05      0.05      0.44      0.01         0.01
  c_905821                    0.01      0.01      0.01      0.38         0.01
  c_905851                    0.39      0.39      0.55      0.01         0.01
  c_905852                    0.01      0.01      0.35      0.01         0.01
  c_905861                    0.35      0.42      0.35      1.39         0.35
  c_905862                    0.01      0.01      0.21      0.01         0.01
  c_905871                    0.36      0.36      0.42      0.01         0.01
  c_905881                    0.01      0.01      0.53      0.01         0.01
  c_905901                    0.01      0.01      0.23      0.01         0.01
  c_905921                    0.77      0.77      0.83      0.01         0.01
  c_905931                    0.36      0.39      0.36      1.32         0.36
  c_905941                    0.01      0.01      0.39      0.01         0.01
  c_905942                    0.78      0.78      0.83      0.75         0.01
  c_905951                    0.01      0.01      0.32      0.01         0.01
  c_905961                    0.01      0.01      0.30      0.01         0.01
  c_906051                    0.01      0.01      0.35      0.01         0.01
  c_906061                    0.09      0.09      0.35      0.01         0.01
  c_906071                    0.01      0.01      0.26      0.01         0.01
  c_906201                    0.01      0.01      0.01      1.29         0.01
  c_906211                    0.01      0.01      0.18      0.01         0.01
  c_906241                    0.79      0.79      0.92      0.01         0.01
  c_906261                    0.68      0.68      0.87      0.01         0.01
  c_906271                    0.87      0.87      0.89      0.01         0.01
  c_906281                    0.01      0.01      0.11      0.01         0.01
  c_906322                    0.01      0.01      0.01      0.77         0.01
  c_906341                    0.01      0.01      0.47      0.01         0.01
  c_906351                    0.59      0.59      0.68      0.01         0.01
  c_906352                    0.68      0.68      0.70      0.01         0.01
  c_906361                    0.29      0.29      0.64      0.01         0.01
  c_906381                    0.01      0.01      0.31      0.01         0.01
  c_906391                    0.01      0.01      0.01      0.01         0.01
  c_906411                    0.01      0.01      0.05      0.01         0.01
  c_906511                    0.01      0.01      0.39      0.01         0.01
  c_906561                    0.01      0.01      0.01      0.47         0.01
  c_906563                    0.01      0.01      0.15      0.01         0.01
  c_906631                    0.07      0.07      0.07      0.70         0.06
  c_906651                    1.06      1.06      1.06      0.01         0.04
  c_906731                    0.80      0.80      0.80      0.69         0.61
  c_906741                    0.01      0.01      0.01      0.91         0.01
  c_906781                    0.01      0.01      0.78      0.01         0.01
  c_906821                    0.01      0.01      0.71      0.01         0.01
  c_906841                    0.64      0.64      0.67      0.01         0.01
  c_907031                    0.23      0.23      0.35      0.01         0.01
  c_907032                    0.01      0.01      0.54      0.01         0.01
  c_907033                    0.35      0.35      0.48      0.01         0.01
  c_907061                    0.65      0.65      0.75      0.01         0.01
  c_907062                    0.65      0.65      0.77      0.01         0.01
  c_907071                    0.26      0.26      0.30      0.01         0.01
  c_907081                    0.01      0.01      0.04      0.01         0.01
  c_907091                    0.01      0.01      0.63      0.01         0.01
  c_907242                    0.01      0.01      0.01      0.01         0.01
  

  Analysis begun on:  Sun Jun 12 01:32:54 2022
  Analysis ended on:  Sun Jun 12 01:32:58 2022
  Total elapsed time: 00:00:04