
  EPA STORM WATER MANAGEMENT MODEL - VERSION 5.1 (Build 5.1.015)
  --------------------------------------------------------------

  WARNING 04: minimum elevation drop used for Conduit c_903642
  WARNING 04: minimum elevation drop used for Conduit c_903651
  WARNING 04: minimum elevation drop used for Conduit c_903672
  WARNING 04: minimum elevation drop used for Conduit c_905571
  WARNING 04: minimum elevation drop used for Conduit c_905632
  WARNING 04: minimum elevation drop used for Conduit c_905821
  WARNING 04: minimum elevation drop used for Conduit c_905861
  WARNING 04: minimum elevation drop used for Conduit c_905931
  WARNING 04: minimum elevation drop used for Conduit c_906201
  WARNING 04: minimum elevation drop used for Conduit c_906322
  WARNING 04: minimum elevation drop used for Conduit c_906631
  WARNING 04: minimum elevation drop used for Conduit c_906641
  WARNING 04: minimum elevation drop used for Conduit c_906651
  WARNING 04: minimum elevation drop used for Conduit c_906731
  WARNING 04: minimum elevation drop used for Conduit c_906741
  WARNING 04: minimum elevation drop used for Conduit c_907242
  
  *********************
  Rainfall File Summary
  *********************
  Station    First        Last         Recording   Periods    Periods    Periods
  ID         Date         Date         Frequency  w/Precip    Missing    Malfunc.
  -------------------------------------------------------------------------------
  R1         01/09/2014   01/10/2014       5 min       338          0          0
  R1         01/09/2014   01/10/2014       5 min       338          0          0
  R1         01/09/2014   01/10/2014       5 min       338          0          0

  
  *********************************************************
  NOTE: The summary statistics displayed in this report are
  based on results found at every computational time step,  
  not just on results from each reporting time step.
  *********************************************************
  
  ****************
  Analysis Options
  ****************
  Flow Units ............... CMS
  Process Models:
    Rainfall/Runoff ........ YES
    RDII ................... NO
    Snowmelt ............... NO
    Groundwater ............ NO
    Flow Routing ........... YES
    Ponding Allowed ........ NO
    Water Quality .......... NO
  Infiltration Method ...... HORTON
  Flow Routing Method ...... DYNWAVE
  Surcharge Method ......... EXTRAN
  Starting Date ............ 01/09/2014 00:00:00
  Ending Date .............. 01/10/2014 06:20:00
  Antecedent Dry Days ...... 0.0
  Report Time Step ......... 00:05:00
  Wet Time Step ............ 00:01:00
  Dry Time Step ............ 00:10:00
  Routing Time Step ........ 1.00 sec
  Variable Time Step ....... YES
  Maximum Trials ........... 12
  Number of Threads ........ 2
  Head Tolerance ........... 0.000200 m
  
  
  **************************        Volume         Depth
  Runoff Quantity Continuity     hectare-m            mm
  **************************     ---------       -------
  Total Precipitation ......         1.445        52.083
  Evaporation Loss .........         0.032         1.165
  Infiltration Loss ........         0.018         0.659
  Surface Runoff ...........         1.317        47.440
  Final Storage ............         0.100         3.586
  Continuity Error (%) .....        -1.471
  
  
  **************************        Volume        Volume
  Flow Routing Continuity        hectare-m      10^6 ltr
  **************************     ---------     ---------
  Dry Weather Inflow .......         0.000         0.000
  Wet Weather Inflow .......         1.316        13.161
  Groundwater Inflow .......         0.000         0.000
  RDII Inflow ..............         0.000         0.000
  External Inflow ..........         0.000         0.000
  External Outflow .........         1.321        13.208
  Flooding Loss ............         0.000         0.003
  Evaporation Loss .........         0.000         0.000
  Exfiltration Loss ........         0.000         0.000
  Initial Stored Volume ....         0.000         0.000
  Final Stored Volume ......         0.001         0.006
  Continuity Error (%) .....        -0.426
  
  
  *************************
  Highest Continuity Errors
  *************************
  Node j_91278 (5.98%)
  Node j_90650 (3.20%)
  Node j_90584 (2.89%)
  Node j_90638 (2.89%)
  Node j_90628 (2.18%)
  
  
  ***************************
  Time-Step Critical Elements
  ***************************
  Link c_904312 (11.86%)
  
  
  ********************************
  Highest Flow Instability Indexes
  ********************************
  Link c_906651 (2)
  
  
  *************************
  Routing Time Step Summary
  *************************
  Minimum Time Step           :     0.50 sec
  Average Time Step           :     0.96 sec
  Maximum Time Step           :     1.00 sec
  Percent in Steady State     :     0.27
  Average Iterations per Step :     2.42
  Percent Not Converging      :     3.42
  Time Step Frequencies       :
      1.000 -  0.871 sec      :    89.41 %
      0.871 -  0.758 sec      :     1.96 %
      0.758 -  0.660 sec      :     1.81 %
      0.660 -  0.574 sec      :     2.88 %
      0.574 -  0.500 sec      :     3.94 %
  
  
  ***************************
  Subcatchment Runoff Summary
  ***************************
  
  ------------------------------------------------------------------------------------------------------------------------------
                            Total      Total      Total      Total     Imperv       Perv      Total       Total     Peak  Runoff
                           Precip      Runon       Evap      Infil     Runoff     Runoff     Runoff      Runoff   Runoff   Coeff
  Subcatchment                 mm         mm         mm         mm         mm         mm         mm    10^6 ltr      CMS
  ------------------------------------------------------------------------------------------------------------------------------
  sub_9006F                 52.08       0.00       1.17       0.55      30.63      16.56      47.18        0.02     0.00   0.906
  sub_90334                 52.08       0.00       1.16       1.44       5.54      43.68      49.22        0.06     0.01   0.945
  sub_90335                 52.08       0.00       1.17       0.33      36.66      10.04      46.70        0.09     0.02   0.897
  sub_90336                 52.08       0.00       1.16       1.11      14.82      33.65      48.47        0.02     0.00   0.931
  sub_90363                 52.08       0.00       1.17       0.33      36.58      10.12      46.70        0.10     0.03   0.897
  sub_90364                 52.08       0.00       1.16       1.22      11.69      37.03      48.72        0.03     0.01   0.935
  sub_90365                 52.08       0.00       1.16       1.64       0.00      49.67      49.67        0.00     0.00   0.954
  sub_90366                 52.08       0.00       1.17       0.55      30.41      16.79      47.20        0.03     0.01   0.906
  sub_90367                 52.08       0.00       1.16       0.93      19.79      28.27      48.06        0.03     0.01   0.923
  sub_90369                 52.08       0.00       1.17       0.67      27.22      20.24      47.46        0.08     0.02   0.911
  sub_90370                 52.08       0.00       1.17       0.45      33.36      13.61      46.96        0.03     0.01   0.902
  sub_90371                 52.08       0.00       1.17       0.23      39.38       7.10      46.47        0.05     0.01   0.892
  sub_90372                 52.08       0.00       1.16       1.04      16.93      31.37      48.30        0.02     0.00   0.927
  sub_90373                 52.08       0.00       1.17       0.07      43.94       2.16      46.10        0.03     0.01   0.885
  sub_90375                 52.08       0.00       1.17       0.33      36.75       9.93      46.69        0.04     0.01   0.896
  sub_90376                 52.08       0.00       1.17       0.59      29.53      17.74      47.27        0.01     0.00   0.908
  sub_90377                 52.08       0.00       1.17       0.35      36.24      10.49      46.73        0.03     0.01   0.897
  sub_90378                 52.08       0.00       1.17       0.46      32.98      14.01      46.99        0.04     0.01   0.902
  sub_90379                 52.08       0.00       1.16       0.78      24.18      23.53      47.71        0.05     0.01   0.916
  sub_90380                 52.08       0.00       1.16       0.71      26.15      21.40      47.55        0.06     0.02   0.913
  sub_90381                 52.08       0.00       1.16       0.71      25.92      21.65      47.57        0.04     0.01   0.913
  sub_90382                 52.08       0.00       1.17       0.59      29.32      17.97      47.29        0.04     0.01   0.908
  sub_90383                 52.08       0.00       1.17       0.51      31.76      15.33      47.09        0.04     0.01   0.904
  sub_90384                 52.08       0.00       1.16       0.97      18.79      29.35      48.15        0.02     0.01   0.924
  sub_90385                 52.08       0.00       1.17       0.43      33.93      12.99      46.92        0.03     0.01   0.901
  sub_90386                 52.08       0.00       1.16       0.78      23.97      23.76      47.73        0.05     0.01   0.916
  sub_90387                 52.08       0.00       1.17       0.61      28.79      18.54      47.33        0.04     0.01   0.909
  sub_90388                 52.08       0.00       1.17       0.61      28.96      18.36      47.32        0.02     0.01   0.909
  sub_90389                 52.08       0.00       1.17       0.67      27.11      20.36      47.47        0.03     0.01   0.911
  sub_90390                 52.08       0.00       1.16       0.84      22.27      25.59      47.86        0.02     0.00   0.919
  sub_90391                 52.08       0.00       1.16       1.64       0.00      49.67      49.67        0.02     0.01   0.954
  sub_90392                 52.08       0.00       1.16       1.05      16.56      31.77      48.33        0.04     0.01   0.928
  sub_90393                 52.08       0.00       1.16       1.04      16.94      31.35      48.30        0.07     0.02   0.927
  sub_90394                 52.08       0.00       1.16       0.98      18.38      29.80      48.18        0.02     0.01   0.925
  sub_90395                 52.08       0.00       1.17       0.38      35.28      11.53      46.81        0.03     0.01   0.899
  sub_90396                 52.08       0.00       1.17       0.00      45.94       0.00      45.94        0.01     0.00   0.882
  sub_90397                 52.08       0.00       1.16       0.89      21.15      26.81      47.95        0.03     0.01   0.921
  sub_90398                 52.08       0.00       1.16       0.92      20.06      27.98      48.04        0.03     0.01   0.922
  sub_90399                 52.08       0.00       1.17       0.52      31.43      15.69      47.12        0.04     0.01   0.905
  sub_90400                 52.08       0.00       1.17       0.62      28.71      18.63      47.34        0.02     0.01   0.909
  sub_90401                 52.08       0.00       1.17       0.36      35.80      10.97      46.77        0.04     0.01   0.898
  sub_90402                 52.08       0.00       1.17       0.38      35.20      11.61      46.81        0.04     0.01   0.899
  sub_90403                 52.08       0.00       1.17       0.62      28.59      18.76      47.35        0.02     0.01   0.909
  sub_90404                 52.08       0.00       1.17       0.65      27.69      19.73      47.42        0.03     0.01   0.911
  sub_90405                 52.08       0.00       1.16       0.71      25.92      21.65      47.57        0.04     0.01   0.913
  sub_90406                 52.08       0.00       1.16       0.87      21.69      26.22      47.91        0.03     0.01   0.920
  sub_90407                 52.08       0.00       1.16       0.85      22.15      25.72      47.87        0.03     0.01   0.919
  sub_90408                 52.08       0.00       1.17       0.54      30.73      16.45      47.18        0.07     0.02   0.906
  sub_90427                 52.08       0.00       1.17       0.64      28.09      19.30      47.39        0.07     0.02   0.910
  sub_90428                 52.08       0.00       1.16       0.77      24.26      23.44      47.70        0.04     0.01   0.916
  sub_90430                 52.08       0.00       1.17       0.37      35.63      11.15      46.78        0.02     0.01   0.898
  sub_90431                 52.08       0.00       1.17       0.59      29.30      18.00      47.29        0.03     0.01   0.908
  sub_90433                 52.08       0.00       1.16       0.82      22.97      24.84      47.81        0.01     0.00   0.918
  sub_90434                 52.08       0.00       1.17       0.29      37.74       8.87      46.61        0.03     0.01   0.895
  sub_90435                 52.08       0.00       1.17       0.52      31.35      15.78      47.13        0.04     0.01   0.905
  sub_90436                 52.08       0.00       1.17       0.26      38.59       7.95      46.54        0.02     0.01   0.894
  sub_90437                 52.08       0.00       1.17       0.41      34.35      12.53      46.88        0.05     0.01   0.900
  sub_90438                 52.08       0.00       1.17       0.58      29.57      17.70      47.27        0.04     0.01   0.908
  sub_90439                 52.08       0.00       1.17       0.59      29.40      17.88      47.28        0.02     0.01   0.908
  sub_90440                 52.08       0.00       1.17       0.67      27.20      20.26      47.46        0.07     0.02   0.911
  sub_90441                 52.08       0.00       1.16       1.09      15.31      33.11      48.43        0.03     0.01   0.930
  sub_90442                 52.08       0.00       1.16       1.28       9.95      38.91      48.86        0.08     0.02   0.938
  sub_90443                 52.08       0.00       1.16       0.96      19.13      28.99      48.12        0.11     0.03   0.924
  sub_90444                 52.08       0.00       1.17       0.46      33.04      13.95      46.99        0.04     0.01   0.902
  sub_90445                 52.08       0.00       1.16       0.81      23.27      24.51      47.78        0.04     0.01   0.917
  sub_90446                 52.08       0.00       1.17       0.49      32.22      14.84      47.06        0.04     0.01   0.903
  sub_90447                 52.08       0.00       1.16       0.76      24.58      23.09      47.68        0.05     0.01   0.915
  sub_90448                 52.08       0.00       1.16       0.71      26.09      21.46      47.55        0.06     0.02   0.913
  sub_90449                 52.08       0.00       1.17       0.67      27.22      20.24      47.46        0.03     0.01   0.911
  sub_90450                 52.08       0.00       1.17       0.57      30.10      17.13      47.23        0.01     0.00   0.907
  sub_90451                 52.08       0.00       1.16       0.72      25.81      21.77      47.58        0.04     0.01   0.913
  sub_90452                 52.08       0.00       1.16       0.92      20.10      27.94      48.04        0.02     0.01   0.922
  sub_90453                 52.08       0.00       1.17       0.47      32.66      14.36      47.02        0.04     0.01   0.903
  sub_90454                 52.08       0.00       1.17       0.64      28.05      19.35      47.39        0.05     0.01   0.910
  sub_90455                 52.08       0.00       1.17       0.35      36.10      10.64      46.74        0.04     0.01   0.897
  sub_90456                 52.08       0.00       1.16       0.95      19.30      28.81      48.10        0.07     0.02   0.924
  sub_90457                 52.08       0.00       1.16       0.94      19.73      28.34      48.07        0.08     0.02   0.923
  sub_90459                 52.08       0.00       1.16       1.14      14.14      34.39      48.52        0.09     0.02   0.932
  sub_90460                 52.08       0.00       1.16       1.52       3.32      46.08      49.40        0.04     0.01   0.949
  sub_90461                 52.08       0.00       1.17       0.55      30.63      16.56      47.18        0.02     0.00   0.906
  sub_90462                 52.08       0.00       1.16       0.77      24.35      23.34      47.69        0.04     0.01   0.916
  sub_90463                 52.08       0.00       1.17       0.40      34.85      11.99      46.84        0.04     0.01   0.899
  sub_90464                 52.08       0.00       1.17       0.66      27.47      19.97      47.44        0.05     0.01   0.911
  sub_90465                 52.08       0.00       1.17       0.35      36.10      10.64      46.74        0.04     0.01   0.897
  sub_90466                 52.08       0.00       1.17       0.62      28.71      18.63      47.34        0.05     0.01   0.909
  sub_90467                 52.08       0.00       1.17       0.30      37.51       9.12      46.63        0.07     0.02   0.895
  sub_90468                 52.08       0.00       1.17       0.58      29.62      17.65      47.27        0.06     0.02   0.908
  sub_90469                 52.08       0.00       1.17       0.35      36.10      10.64      46.74        0.04     0.01   0.897
  sub_90470                 52.08       0.00       1.17       0.60      29.04      18.27      47.31        0.05     0.01   0.908
  sub_90471                 52.08       0.00       1.17       0.50      31.94      15.14      47.08        0.05     0.01   0.904
  sub_90477                 52.08       0.00       1.17       0.34      36.37      10.35      46.72        0.07     0.02   0.897
  sub_90478                 52.08       0.00       1.17       0.40      34.85      11.99      46.84        0.04     0.01   0.899
  sub_90479                 52.08       0.00       1.16       0.94      19.60      28.48      48.08        0.04     0.01   0.923
  sub_90480                 52.08       0.00       1.17       0.46      32.97      14.02      46.99        0.06     0.02   0.902
  sub_90481                 52.08       0.00       1.17       0.59      29.50      17.78      47.28        0.04     0.01   0.908
  sub_90482                 52.08       0.00       1.17       0.61      28.81      18.52      47.33        0.03     0.01   0.909
  sub_90483                 52.08       0.00       1.16       1.23      11.49      37.25      48.74        0.05     0.01   0.936
  sub_90484                 52.08       0.00       1.17       0.51      31.58      15.52      47.11        0.05     0.01   0.904
  sub_90485                 52.08       0.00       1.16       0.92      20.06      27.98      48.04        0.07     0.02   0.922
  sub_90486                 52.08       0.00       1.16       0.69      26.74      20.76      47.50        0.06     0.02   0.912
  sub_90487                 52.08       0.00       1.17       0.59      29.50      17.78      47.28        0.09     0.02   0.908
  sub_90488                 52.08       0.00       1.16       0.72      25.86      21.71      47.57        0.06     0.02   0.913
  sub_90489                 52.08       0.00       1.17       0.36      35.79      10.97      46.77        0.04     0.01   0.898
  sub_90490                 52.08       0.00       1.17       0.32      36.85       9.82      46.68        0.04     0.01   0.896
  sub_90491                 52.08       0.00       1.17       0.38      35.24      11.57      46.81        0.05     0.01   0.899
  sub_90492                 52.08       0.00       1.17       0.51      31.54      15.57      47.11        0.06     0.02   0.905
  sub_90493                 52.08       0.00       1.17       0.35      36.13      10.60      46.74        0.04     0.01   0.897
  sub_90494                 52.08       0.00       1.17       0.34      36.56      10.15      46.70        0.04     0.01   0.897
  sub_90495                 52.08       0.00       1.17       0.52      31.24      15.89      47.14        0.05     0.01   0.905
  sub_90496                 52.08       0.00       1.17       0.35      36.13      10.60      46.74        0.04     0.01   0.897
  sub_90497                 52.08       0.00       1.17       0.31      37.14       9.51      46.66        0.04     0.01   0.896
  sub_90498                 52.08       0.00       1.17       0.59      29.39      17.89      47.29        0.08     0.02   0.908
  sub_90499                 52.08       0.00       1.16       1.03      17.10      31.18      48.28        0.07     0.02   0.927
  sub_90500                 52.08       0.00       1.16       0.75      24.79      22.86      47.66        0.06     0.02   0.915
  sub_90501                 52.08       0.00       1.17       0.33      36.66      10.03      46.70        0.05     0.01   0.897
  sub_90502                 52.08       0.00       1.17       0.65      27.75      19.67      47.42        0.05     0.01   0.910
  sub_90503                 52.08       0.00       1.17       0.36      35.73      11.04      46.77        0.03     0.01   0.898
  sub_90504                 52.08       0.00       1.17       0.34      36.45      10.26      46.71        0.04     0.01   0.897
  sub_90505                 52.08       0.00       1.17       0.40      34.82      12.03      46.84        0.04     0.01   0.899
  sub_90506                 52.08       0.00       1.17       0.43      33.80      13.13      46.93        0.04     0.01   0.901
  sub_90507                 52.08       0.00       1.17       0.45      33.23      13.74      46.97        0.04     0.01   0.902
  sub_90508                 52.08       0.00       1.17       0.44      33.62      13.33      46.94        0.04     0.01   0.901
  sub_90509                 52.08       0.00       1.16       0.91      20.49      27.52      48.01        0.04     0.01   0.922
  sub_90510                 52.08       0.00       1.17       0.41      34.46      12.42      46.87        0.04     0.01   0.900
  sub_90511                 52.08       0.00       1.16       0.70      26.25      21.29      47.54        0.02     0.01   0.913
  sub_90512                 52.08       0.00       1.17       0.47      32.88      14.12      47.00        0.05     0.01   0.902
  sub_90513                 52.08       0.00       1.17       0.32      37.00       9.67      46.67        0.09     0.02   0.896
  sub_90514                 52.08       0.00       1.17       0.42      34.06      12.85      46.91        0.05     0.01   0.901
  sub_90515                 52.08       0.00       1.16       0.74      25.10      22.54      47.63        0.05     0.01   0.915
  sub_90516                 52.08       0.00       1.16       1.04      16.82      31.48      48.31        0.03     0.01   0.927
  sub_90517                 52.08       0.00       1.16       0.75      24.89      22.77      47.65        0.03     0.01   0.915
  sub_90518                 52.08       0.00       1.17       0.23      39.64       6.82      46.45        0.02     0.01   0.892
  sub_90519                 52.08       0.00       1.16       0.84      22.53      25.31      47.84        0.10     0.03   0.919
  sub_90520                 52.08       0.00       1.16       0.81      23.16      24.63      47.79        0.06     0.02   0.918
  sub_90521                 52.08       0.00       1.17       0.48      32.51      14.52      47.03        0.03     0.01   0.903
  sub_90522                 52.08       0.00       1.17       0.38      35.19      11.63      46.81        0.02     0.01   0.899
  sub_90523                 52.08       0.00       1.17       0.48      32.60      14.42      47.02        0.06     0.02   0.903
  sub_90524                 52.08       0.00       1.16       0.80      23.52      24.24      47.76        0.08     0.02   0.917
  sub_90525                 52.08       0.00       1.16       1.01      17.70      30.54      48.23        0.12     0.03   0.926
  sub_90526                 52.08       0.00       1.16       0.81      23.26      24.52      47.78        0.04     0.01   0.917
  sub_90527                 52.08       0.00       1.16       1.05      16.66      31.66      48.32        0.04     0.01   0.928
  sub_90549                 52.08       0.00       1.16       0.76      24.68      22.98      47.67        0.03     0.01   0.915
  sub_90550                 52.08       0.00       1.17       0.00      45.94       0.00      45.94        0.02     0.01   0.882
  sub_90551                 52.08       0.00       1.16       0.89      21.09      26.87      47.96        0.03     0.01   0.921
  sub_90552                 52.08       0.00       1.17       0.36      35.77      11.00      46.77        0.14     0.04   0.898
  sub_90553                 52.08       0.00       1.16       0.85      22.12      25.76      47.88        0.03     0.01   0.919
  sub_90554                 52.08       0.00       1.16       0.81      23.27      24.51      47.78        0.04     0.01   0.917
  sub_90555                 52.08       0.00       1.16       0.99      18.27      29.92      48.19        0.04     0.01   0.925
  sub_90556                 52.08       0.00       1.16       1.08      15.62      32.78      48.40        0.07     0.02   0.929
  sub_90557                 52.08       0.00       1.17       0.56      30.33      16.88      47.21        0.05     0.01   0.906
  sub_90558                 52.08       0.00       1.17       0.56      30.17      17.05      47.22        0.08     0.02   0.907
  sub_90559                 52.08       0.00       1.16       0.88      21.20      26.75      47.95        0.05     0.01   0.921
  sub_90560                 52.08       0.00       1.16       0.73      25.52      22.08      47.60        0.08     0.02   0.914
  sub_90561                 52.08       0.00       1.17       0.65      27.78      19.64      47.42        0.06     0.02   0.910
  sub_90562                 52.08       0.00       1.17       0.60      29.13      18.17      47.31        0.06     0.02   0.908
  sub_90563                 52.08       0.00       1.17       0.57      30.07      17.16      47.23        0.05     0.01   0.907
  sub_90564                 52.08       0.00       1.17       0.49      32.21      14.84      47.06        0.04     0.01   0.903
  sub_90565                 52.08       0.00       1.16       0.70      26.38      21.15      47.53        0.05     0.01   0.913
  sub_90566                 52.08       0.00       1.16       0.72      25.87      21.70      47.57        0.05     0.01   0.913
  sub_90567                 52.08       0.00       1.16       0.85      22.05      25.83      47.88        0.04     0.01   0.919
  sub_90568                 52.08       0.00       1.17       0.00      45.94       0.00      45.94        0.02     0.01   0.882
  sub_90569                 52.08       0.00       1.16       0.79      23.94      23.79      47.73        0.03     0.01   0.916
  sub_90570                 52.08       0.00       1.16       0.94      19.69      28.38      48.07        0.03     0.01   0.923
  sub_90571                 52.08       0.00       1.17       0.50      31.85      15.24      47.09        0.04     0.01   0.904
  sub_90572                 52.08       0.00       1.17       0.50      31.94      15.14      47.08        0.05     0.01   0.904
  sub_90573                 52.08       0.00       1.17       0.34      36.56      10.15      46.70        0.04     0.01   0.897
  sub_90574                 52.08       0.00       1.17       0.38      35.30      11.51      46.81        0.04     0.01   0.899
  sub_90575                 52.08       0.00       1.17       0.62      28.52      18.84      47.36        0.05     0.01   0.909
  sub_90576                 52.08       0.00       1.16       0.68      27.00      20.48      47.48        0.05     0.01   0.912
  sub_90577                 52.08       0.00       1.17       0.66      27.56      19.87      47.43        0.04     0.01   0.911
  sub_90578                 52.08       0.00       1.17       0.57      29.92      17.33      47.24        0.06     0.02   0.907
  sub_90579                 52.08       0.00       1.17       0.48      32.52      14.51      47.03        0.05     0.01   0.903
  sub_90580                 52.08       0.00       1.16       0.99      18.08      30.12      48.20        0.05     0.01   0.925
  sub_90581                 52.08       0.00       1.16       0.80      23.48      24.28      47.76        0.04     0.01   0.917
  sub_90582                 52.08       0.00       1.17       0.63      28.31      19.07      47.37        0.05     0.01   0.910
  sub_90583                 52.08       0.00       1.16       0.79      23.91      23.82      47.73        0.05     0.01   0.916
  sub_90584                 52.08       0.00       1.17       0.44      33.59      13.35      46.94        0.04     0.01   0.901
  sub_90585                 52.08       0.00       1.17       0.44      33.64      13.30      46.94        0.05     0.01   0.901
  sub_90586                 52.08       0.00       1.17       0.48      32.40      14.64      47.04        0.04     0.01   0.903
  sub_90587                 52.08       0.00       1.17       0.53      31.01      16.14      47.15        0.04     0.01   0.905
  sub_90588                 52.08       0.00       1.17       0.37      35.67      11.11      46.78        0.04     0.01   0.898
  sub_90589                 52.08       0.00       1.17       0.60      29.15      18.16      47.31        0.04     0.01   0.908
  sub_90590                 52.08       0.00       1.17       0.58      29.77      17.48      47.25        0.06     0.02   0.907
  sub_90591                 52.08       0.00       1.17       0.39      34.93      11.90      46.84        0.04     0.01   0.899
  sub_90592                 52.08       0.00       1.17       0.38      35.27      11.54      46.81        0.05     0.01   0.899
  sub_90593                 52.08       0.00       1.17       0.52      31.49      15.63      47.11        0.04     0.01   0.905
  sub_90594                 52.08       0.00       1.17       0.64      28.11      19.28      47.39        0.06     0.02   0.910
  sub_90595                 52.08       0.00       1.17       0.64      27.94      19.46      47.40        0.05     0.01   0.910
  sub_90596                 52.08       0.00       1.17       0.36      35.73      11.04      46.77        0.04     0.01   0.898
  sub_90597                 52.08       0.00       1.16       0.85      22.00      25.89      47.89        0.03     0.01   0.919
  sub_90598                 52.08       0.00       1.16       0.85      22.18      25.69      47.87        0.03     0.01   0.919
  sub_90599                 52.08       0.00       1.17       0.62      28.48      18.87      47.36        0.02     0.01   0.909
  sub_90600                 52.08       0.00       1.17       0.57      30.07      17.16      47.23        0.03     0.01   0.907
  sub_90601                 52.08       0.00       1.16       0.95      19.46      28.63      48.09        0.04     0.01   0.923
  sub_90602                 52.08       0.00       1.16       0.70      26.25      21.29      47.54        0.04     0.01   0.913
  sub_90603                 52.08       0.00       1.16       0.89      20.94      27.04      47.97        0.04     0.01   0.921
  sub_90604                 52.08       0.00       1.17       0.60      29.24      18.06      47.30        0.04     0.01   0.908
  sub_90605                 52.08       0.00       1.17       0.59      29.49      17.78      47.28        0.08     0.02   0.908
  sub_90606                 52.08       0.00       1.17       0.66      27.46      19.98      47.44        0.04     0.01   0.911
  sub_90607                 52.08       0.00       1.16       0.69      26.74      20.76      47.50        0.03     0.01   0.912
  sub_90608                 52.08       0.00       1.16       0.82      22.97      24.84      47.81        0.04     0.01   0.918
  sub_90609                 52.08       0.00       1.16       0.96      18.96      29.17      48.13        0.03     0.01   0.924
  sub_90610                 52.08       0.00       1.16       0.93      19.78      28.28      48.07        0.03     0.01   0.923
  sub_90611                 52.08       0.00       1.16       0.83      22.55      25.29      47.84        0.03     0.01   0.919
  sub_90612                 52.08       0.00       1.16       0.94      19.53      28.56      48.09        0.04     0.01   0.923
  sub_90613                 52.08       0.00       1.16       1.01      17.78      30.44      48.23        0.06     0.02   0.926
  sub_90615                 52.08       0.00       1.16       0.86      21.97      25.92      47.89        0.08     0.02   0.919
  sub_90616                 52.08       0.00       1.17       0.44      33.67      13.27      46.94        0.08     0.02   0.901
  sub_90617                 52.08       0.00       1.17       0.57      30.05      17.18      47.23        0.06     0.02   0.907
  sub_90618                 52.08       0.00       1.17       0.37      35.71      11.07      46.77        0.09     0.03   0.898
  sub_90619                 52.08       0.00       1.17       0.06      44.30       1.77      46.07        0.03     0.01   0.885
  sub_90620                 52.08       0.00       1.17       0.38      35.17      11.64      46.82        0.03     0.01   0.899
  sub_90621                 52.08       0.00       1.16       0.81      23.19      24.60      47.79        0.10     0.03   0.918
  sub_90623                 52.08       0.00       1.16       0.70      26.47      21.06      47.52        0.09     0.02   0.912
  sub_90624                 52.08       0.00       1.17       0.67      27.15      20.32      47.47        0.02     0.01   0.911
  sub_90625                 52.08       0.00       1.17       0.57      29.92      17.33      47.24        0.04     0.01   0.907
  sub_90626                 52.08       0.00       1.17       0.51      31.66      15.44      47.10        0.03     0.01   0.904
  sub_90627                 52.08       0.00       1.16       0.90      20.62      27.38      48.00        0.06     0.02   0.922
  sub_90628                 52.08       0.00       1.16       0.74      25.20      22.42      47.63        0.10     0.03   0.914
  sub_90629                 52.08       0.00       1.16       0.86      21.86      26.03      47.90        0.07     0.02   0.920
  sub_90630                 52.08       0.00       1.17       0.36      35.79      10.97      46.77        0.04     0.01   0.898
  sub_90631                 52.08       0.00       1.17       0.57      30.06      17.17      47.23        0.04     0.01   0.907
  sub_90632                 52.08       0.00       1.17       0.59      29.49      17.78      47.28        0.04     0.01   0.908
  sub_90633                 52.08       0.00       1.17       0.36      35.84      10.92      46.76        0.04     0.01   0.898
  sub_90634                 52.08       0.00       1.17       0.55      30.63      16.56      47.18        0.03     0.01   0.906
  sub_90635                 52.08       0.00       1.16       0.80      23.52      24.24      47.76        0.04     0.01   0.917
  sub_90636                 52.08       0.00       1.17       0.61      28.96      18.36      47.32        0.04     0.01   0.909
  sub_90637                 52.08       0.00       1.17       0.56      30.20      17.02      47.22        0.05     0.01   0.907
  sub_90638                 52.08       0.00       1.17       0.33      36.75       9.93      46.69        0.07     0.02   0.896
  sub_90639                 52.08       0.00       1.16       0.86      21.94      25.95      47.89        0.05     0.01   0.919
  sub_90640                 52.08       0.00       1.17       0.43      33.89      13.03      46.92        0.06     0.02   0.901
  sub_90641                 52.08       0.00       1.17       0.53      31.11      16.04      47.15        0.06     0.02   0.905
  sub_90642                 52.08       0.00       1.17       0.67      27.22      20.24      47.46        0.04     0.01   0.911
  sub_90643                 52.08       0.00       1.17       0.43      33.95      12.97      46.92        0.08     0.02   0.901
  sub_90644                 52.08       0.00       1.17       0.37      35.57      11.22      46.78        0.04     0.01   0.898
  sub_90645                 52.08       0.00       1.17       0.52      31.24      15.89      47.14        0.02     0.01   0.905
  sub_90646                 52.08       0.00       1.16       0.98      18.38      29.80      48.18        0.04     0.01   0.925
  sub_90647                 52.08       0.00       1.16       1.35       8.03      40.99      49.02        0.05     0.01   0.941
  sub_90648                 52.08       0.00       1.17       0.36      35.95      10.80      46.75        0.03     0.01   0.898
  sub_90649                 52.08       0.00       1.17       0.53      31.22      15.91      47.14        0.05     0.01   0.905
  sub_90650                 52.08       0.00       1.17       0.52      31.46      15.66      47.12        0.10     0.03   0.905
  sub_90651                 52.08       0.00       1.17       0.43      34.01      12.90      46.91        0.05     0.01   0.901
  sub_90652                 52.08       0.00       1.17       0.54      30.84      16.33      47.17        0.03     0.01   0.906
  sub_90653                 52.08       0.00       1.17       0.66      27.56      19.87      47.43        0.03     0.01   0.911
  sub_90654                 52.08       0.00       1.16       0.75      24.89      22.77      47.65        0.01     0.00   0.915
  sub_90655                 52.08       0.00       1.17       0.49      32.30      14.75      47.05        0.05     0.01   0.903
  sub_90656                 52.08       0.00       1.16       0.87      21.69      26.22      47.91        0.05     0.01   0.920
  sub_90657                 52.08       0.00       1.16       0.91      20.46      27.55      48.01        0.06     0.02   0.922
  sub_90658                 52.08       0.00       1.17       0.52      31.39      15.73      47.12        0.06     0.02   0.905
  sub_90659                 52.08       0.00       1.16       1.19      12.67      35.97      48.64        0.03     0.01   0.934
  sub_90662                 52.08       0.00       1.17       0.61      28.93      18.40      47.32        0.01     0.00   0.909
  sub_90663                 52.08       0.00       1.16       0.83      22.70      25.13      47.83        0.12     0.03   0.918
  sub_90664                 52.08       0.00       1.16       1.64       0.00      49.67      49.67        0.01     0.00   0.954
  sub_90665                 52.08       0.00       1.16       0.77      24.47      23.22      47.68        0.04     0.01   0.916
  sub_90669                 52.08       0.00       1.17       0.62      28.56      18.79      47.35        0.02     0.00   0.909
  sub_90670                 52.08       0.00       1.17       0.45      33.22      13.75      46.97        0.03     0.01   0.902
  sub_90671                 52.08       0.00       1.17       0.50      31.96      15.12      47.08        0.01     0.00   0.904
  sub_90672                 52.08       0.00       1.17       0.66      27.36      20.09      47.45        0.04     0.01   0.911
  sub_90673                 52.08       0.00       1.16       0.85      22.26      25.60      47.86        0.05     0.01   0.919
  sub_90674                 52.08       0.00       1.17       0.24      39.08       7.41      46.50        0.06     0.02   0.893
  sub_90675                 52.08       0.00       1.17       0.37      35.49      11.30      46.79        0.07     0.02   0.898
  sub_90676                 52.08       0.00       1.17       0.55      30.50      16.70      47.20        0.06     0.02   0.906
  sub_90677                 52.08       0.00       1.16       0.81      23.37      24.40      47.77        0.03     0.01   0.917
  sub_90678                 52.08       0.00       1.16       0.72      25.73      21.86      47.58        0.04     0.01   0.914
  sub_90679                 52.08       0.00       1.16       0.79      23.71      24.03      47.75        0.07     0.02   0.917
  sub_90680                 52.08       0.00       1.17       0.46      33.18      13.80      46.98        0.07     0.02   0.902
  sub_90681                 52.08       0.00       1.16       0.81      23.35      24.43      47.78        0.03     0.01   0.917
  sub_90682                 52.08       0.00       1.16       0.73      25.63      21.96      47.59        0.05     0.01   0.914
  sub_90683                 52.08       0.00       1.16       1.20      12.40      36.27      48.66        0.03     0.01   0.934
  sub_90684                 52.08       0.00       1.17       0.27      38.46       8.09      46.55        0.02     0.01   0.894
  sub_90685                 52.08       0.00       1.17       0.20      40.47       5.91      46.39        0.02     0.01   0.891
  sub_90686                 52.08       0.00       1.16       0.72      25.73      21.86      47.58        0.02     0.01   0.914
  sub_90688                 52.08       0.00       1.17       0.55      30.63      16.56      47.18        0.03     0.01   0.906
  sub_90689                 52.08       0.00       1.16       0.87      21.44      26.49      47.93        0.02     0.01   0.920
  sub_90690                 52.08       0.00       1.16       0.69      26.73      20.77      47.50        0.03     0.01   0.912
  sub_90691                 52.08       0.00       1.17       0.59      29.43      17.85      47.28        0.03     0.01   0.908
  sub_90692                 52.08       0.00       1.17       0.51      31.65      15.45      47.10        0.02     0.01   0.904
  sub_90693                 52.08       0.00       1.16       0.96      18.92      29.22      48.14        0.02     0.00   0.924
  sub_90694                 52.08       0.00       1.16       1.32       8.89      40.06      48.95        0.02     0.00   0.940
  sub_90695                 52.08       0.00       1.16       0.74      25.27      22.35      47.62        0.02     0.01   0.914
  sub_90696                 52.08       0.00       1.16       0.82      22.97      24.84      47.81        0.02     0.00   0.918
  sub_90697                 52.08       0.00       1.16       0.84      22.31      25.55      47.86        0.02     0.00   0.919
  sub_90698                 52.08       0.00       1.16       0.95      19.27      28.84      48.11        0.01     0.00   0.924
  sub_90699                 52.08       0.00       1.16       1.13      14.26      34.26      48.51        0.01     0.00   0.931
  sub_90700                 52.08       0.00       1.17       0.31      37.19       9.46      46.65        0.01     0.00   0.896
  sub_90701                 52.08       0.00       1.17       0.29      37.83       8.77      46.60        0.01     0.00   0.895
  sub_90702                 52.08       0.00       1.17       0.33      36.75       9.93      46.69        0.01     0.00   0.896
  sub_90703                 52.08       0.00       1.16       0.84      22.35      25.51      47.86        0.04     0.01   0.919
  sub_90704                 52.08       0.00       1.16       0.81      23.24      24.54      47.78        0.04     0.01   0.917
  sub_90705                 52.08       0.00       1.16       0.88      21.39      26.54      47.93        0.06     0.02   0.920
  sub_90706                 52.08       0.00       1.17       0.60      29.13      18.17      47.31        0.02     0.01   0.908
  sub_90707                 52.08       0.00       1.17       0.40      34.74      12.11      46.85        0.02     0.01   0.900
  sub_90708                 52.08       0.00       1.16       0.97      18.64      29.51      48.16        0.07     0.02   0.925
  sub_90709                 52.08       0.00       1.16       0.72      25.73      21.86      47.58        0.05     0.01   0.914
  sub_90710                 52.08       0.00       1.16       0.94      19.56      28.52      48.08        0.07     0.02   0.923
  sub_90724                 52.08       0.00       1.16       0.98      18.38      29.80      48.18        0.02     0.01   0.925
  sub_90725                 52.08       0.00       1.16       1.64       0.00      49.67      49.67        0.01     0.00   0.954
  sub_90726                 52.08       0.00       1.16       1.64       0.00      49.67      49.67        0.00     0.00   0.954
  sub_90727                 52.08       0.00       1.16       1.64       0.00      49.67      49.67        0.01     0.00   0.954
  sub_90728                 52.08       0.00       1.16       1.64       0.00      49.67      49.67        0.03     0.01   0.954
  sub_90729                 52.08       0.00       1.16       1.64       0.00      49.67      49.67        0.01     0.00   0.954
  sub_90730                 52.08       0.00       1.16       1.64       0.00      49.67      49.67        0.03     0.01   0.954
  sub_90731                 52.08       0.00       1.16       1.64       0.00      49.67      49.67        0.03     0.01   0.954
  sub_90732                 52.08       0.00       1.16       1.64       0.00      49.67      49.67        0.01     0.00   0.954
  sub_90733                 52.08       0.00       1.17       0.48      32.43      14.61      47.04        0.02     0.01   0.903
  
  
  ******************
  Node Depth Summary
  ******************
  
  ---------------------------------------------------------------------------------
                                 Average  Maximum  Maximum  Time of Max    Reported
                                   Depth    Depth      HGL   Occurrence   Max Depth
  Node                 Type       Meters   Meters   Meters  days hr:min      Meters
  ---------------------------------------------------------------------------------
  j_9006F              JUNCTION     0.04     2.16     1.80     0  13:41        1.41
  j_90334              JUNCTION     0.02     1.10     0.89     0  13:41        0.75
  j_90335              JUNCTION     0.03     1.15     0.74     0  13:44        0.94
  j_90336              JUNCTION     0.03     1.87     1.70     0  13:44        0.77
  j_90363              JUNCTION     0.08     0.99     0.64     0  13:44        0.89
  j_90364              JUNCTION     0.08     0.98     0.63     0  13:44        0.89
  j_90365              JUNCTION     0.08     0.99     0.64     0  13:41        0.89
  j_90366              JUNCTION     0.03     0.87     0.56     0  13:44        0.81
  j_90367              JUNCTION     0.05     1.05     0.56     0  13:44        0.99
  j_90368              JUNCTION     0.02     0.80     0.51     0  13:44        0.78
  j_90369              JUNCTION     0.02     1.03     0.73     0  13:44        0.83
  j_90370              JUNCTION     0.07     1.23     0.72     0  13:44        1.03
  j_90371              JUNCTION     0.08     1.22     0.66     0  13:44        1.05
  j_90372              JUNCTION     0.02     0.77     0.52     0  13:44        0.66
  j_90373              JUNCTION     0.04     0.98     0.51     0  13:44        0.88
  j_90374              JUNCTION     0.02     0.58     0.30     0  13:45        0.58
  j_90375              JUNCTION     0.03     0.65     0.31     0  13:44        0.64
  j_90376              JUNCTION     0.01     0.34     0.19     0  13:45        0.32
  j_90377              JUNCTION     0.01     0.36     0.19     0  13:45        0.35
  j_90378              JUNCTION     0.02     1.28     0.88     0  13:42        0.71
  j_90379              JUNCTION     0.01     1.85     1.60     0  13:42        0.56
  j_90380              JUNCTION     0.02     1.90     1.57     0  13:42        0.70
  j_90381              JUNCTION     0.05     0.97     0.52     0  13:42        0.81
  j_90382              JUNCTION     0.10     1.43     0.51     0  13:44        1.28
  j_90383              JUNCTION     0.09     1.41     0.59     0  13:42        1.23
  j_90384              JUNCTION     0.07     1.23     0.77     0  13:42        0.88
  j_90385              JUNCTION     0.02     1.28     0.91     0  13:42        0.79
  j_90386              JUNCTION     0.02     1.80     1.57     0  13:42        0.65
  j_90387              JUNCTION     0.01     1.77     1.57     0  13:42        0.69
  j_90388              JUNCTION     0.07     1.11     0.72     0  13:44        0.88
  j_90389              JUNCTION     0.09     1.36     0.75     0  13:44        1.10
  j_90390              JUNCTION     0.06     1.29     0.72     0  13:44        1.06
  j_90391              JUNCTION     0.05     1.12     0.88     0  13:44        0.75
  j_90392              JUNCTION     0.06     1.28     1.03     0  13:42        0.78
  j_90393              JUNCTION     0.03     1.53     1.34     0  13:44        0.76
  j_90394              JUNCTION     0.02     1.88     1.78     0  13:44        0.72
  j_90395              JUNCTION     0.02     1.90     1.82     0  13:44        0.71
  j_90396              JUNCTION     0.01     1.87     1.85     0  13:44        0.66
  j_90397              JUNCTION     0.09     1.41     0.64     0  13:44        1.22
  j_90398              JUNCTION     0.05     1.58     0.96     0  13:41        1.11
  j_90399              JUNCTION     0.02     1.79     1.48     0  13:41        0.80
  j_90400              JUNCTION     0.01     1.90     1.64     0  13:41        0.75
  j_90401              JUNCTION     0.02     1.92     1.61     0  13:41        0.78
  j_90402              JUNCTION     0.02     2.01     1.65     0  13:41        0.86
  j_90403              JUNCTION     0.01     1.90     1.65     0  13:41        0.75
  j_90404              JUNCTION     0.02     1.96     1.66     0  13:41        0.81
  j_90405              JUNCTION     0.04     1.52     0.96     0  13:41        1.07
  j_90406              JUNCTION     0.04     1.67     1.17     0  13:41        1.02
  j_90407              JUNCTION     0.02     2.05     1.64     0  13:41        0.95
  j_90408              JUNCTION     0.02     1.89     1.57     0  13:41        0.87
  j_90427              JUNCTION     0.06     1.01     0.58     0  13:44        1.01
  j_90428              JUNCTION     0.04     0.88     0.51     0  04:06        0.84
  j_90430              JUNCTION     0.03     0.27    -1.30     0  13:45        0.27
  j_90433              JUNCTION     0.03     0.48     0.11     0  13:45        0.47
  j_90434              JUNCTION     0.09     0.54     0.11     0  13:45        0.53
  j_90435              JUNCTION     0.03     0.35    -0.02     0  13:45        0.34
  j_90436              JUNCTION     0.03     0.29    -0.17     0  15:20        0.29
  j_90437              JUNCTION     0.12     1.03    -0.33     0  13:45        1.02
  j_90438              JUNCTION     0.15     1.17    -0.18     0  13:45        1.17
  j_90439              JUNCTION     0.01     0.33     0.12     0  13:45        0.33
  j_90440              JUNCTION     0.02     0.49     0.33     0  13:44        0.48
  j_90441              JUNCTION     0.01     0.25     0.12     0  13:44        0.25
  j_90442              JUNCTION     0.11     1.01     0.37     0  13:44        1.01
  j_90443              JUNCTION     0.15     1.25    -0.05     0  13:45        1.25
  j_90444              JUNCTION     0.10     1.33     0.22     0  13:44        1.23
  j_90445              JUNCTION     0.02     0.67     0.24     0  13:44        0.56
  j_90446              JUNCTION     0.02     0.81     0.45     0  13:44        0.50
  j_90447              JUNCTION     0.01     0.39     0.14     0  13:44        0.39
  j_90448              JUNCTION     0.01     1.88     1.61     0  13:44        0.47
  j_90449              JUNCTION     0.04     1.06     0.58     0  13:44        0.69
  j_90450              JUNCTION     0.03     1.01     0.54     0  13:44        0.68
  j_90451              JUNCTION     0.10     1.40     0.38     0  13:44        1.23
  j_90452              JUNCTION     0.02     1.05     0.63     0  13:42        0.72
  j_90453              JUNCTION     0.10     1.40     0.44     0  13:44        1.26
  j_90454              JUNCTION     0.03     1.80     1.33     0  13:41        0.92
  j_90455              JUNCTION     0.05     1.64     1.10     0  13:41        0.94
  j_90456              JUNCTION     0.05     1.46     0.80     0  13:41        1.00
  j_90457              JUNCTION     0.07     1.16     0.40     0  13:41        1.00
  j_90459              JUNCTION     0.09     1.13     0.08     0  13:44        1.12
  j_90460              JUNCTION     0.06     1.11     0.15     0  13:44        1.10
  j_90461              JUNCTION     0.12     1.23     0.15     0  13:44        1.22
  j_90462              JUNCTION     0.09     1.31     0.33     0  13:42        1.26
  j_90463              JUNCTION     0.06     1.44     0.71     0  13:42        1.18
  j_90464              JUNCTION     0.04     1.61     0.98     0  13:41        1.11
  j_90465              JUNCTION     0.03     1.77     1.23     0  13:41        1.03
  j_90466              JUNCTION     0.03     1.90     1.46     0  13:41        0.94
  j_90467              JUNCTION     0.04     1.88     1.46     0  13:41        0.98
  j_90468              JUNCTION     0.05     1.84     1.32     0  13:41        1.08
  j_90469              JUNCTION     0.04     1.66     1.10     0  13:41        1.11
  j_90470              JUNCTION     0.06     1.58     0.91     0  13:41        1.21
  j_90471              JUNCTION     0.06     1.56     0.86     0  13:41        1.24
  j_90477              JUNCTION     0.03     1.15     0.84     0  13:44        1.14
  j_90478              JUNCTION     0.05     1.23     0.82     0  13:44        1.22
  j_90479              JUNCTION     0.03     1.25     0.93     0  04:05        1.12
  j_90480              JUNCTION     0.03     1.08     0.83     0  13:44        1.07
  j_90481              JUNCTION     0.05     1.22     0.82     0  13:44        1.21
  j_90482              JUNCTION     0.06     1.26     0.81     0  13:44        1.25
  j_90483              JUNCTION     0.04     1.09     0.81     0  13:44        1.08
  j_90484              JUNCTION     0.02     0.98     0.78     0  13:44        0.97
  j_90485              JUNCTION     0.04     1.05     0.72     0  13:44        1.04
  j_90486              JUNCTION     0.08     1.11     0.65     0  13:44        1.11
  j_90487              JUNCTION     0.07     1.17     0.65     0  13:44        1.16
  j_90488              JUNCTION     0.10     1.23     0.63     0  04:08        1.20
  j_90489              JUNCTION     0.02     1.82     1.59     0  04:08        0.90
  j_90490              JUNCTION     0.03     1.43     1.12     0  04:08        1.03
  j_90491              JUNCTION     0.09     1.34     0.80     0  13:44        1.33
  j_90492              JUNCTION     0.10     1.38     0.76     0  13:44        1.37
  j_90493              JUNCTION     0.03     1.07     0.75     0  13:44        1.06
  j_90494              JUNCTION     0.12     1.67     0.93     0  04:08        1.46
  j_90495              JUNCTION     0.12     1.47     0.76     0  13:44        1.47
  j_90496              JUNCTION     0.04     1.47     1.15     0  13:38        1.06
  j_90497              JUNCTION     0.02     1.77     1.59     0  04:07        0.90
  j_90498              JUNCTION     0.06     1.31     0.83     0  13:38        1.15
  j_90499              JUNCTION     0.06     1.34     0.87     0  04:08        1.21
  j_90500              JUNCTION     0.04     1.44     1.06     0  04:08        1.16
  j_90501              JUNCTION     0.04     1.85     1.58     0  04:07        1.14
  j_90502              JUNCTION     0.03     1.85     1.62     0  04:07        1.11
  j_90503              JUNCTION     0.03     1.82     1.59     0  04:07        1.11
  j_90504              JUNCTION     0.07     1.84     1.56     0  04:07        1.16
  j_90505              JUNCTION     0.07     1.33     0.83     0  13:44        1.32
  j_90506              JUNCTION     0.08     1.39     0.88     0  04:07        1.38
  j_90507              JUNCTION     0.04     1.76     1.39     0  04:07        1.26
  j_90508              JUNCTION     0.06     1.44     0.99     0  13:38        1.32
  j_90509              JUNCTION     0.03     1.34     1.09     0  04:07        1.12
  j_90510              JUNCTION     0.04     1.41     1.10     0  13:38        1.25
  j_90511              JUNCTION     0.13     1.56     0.97     0  13:44        1.56
  j_90512              JUNCTION     0.09     1.52     0.98     0  04:08        1.51
  j_90513              JUNCTION     0.03     1.81     1.55     0  04:08        1.15
  j_90514              JUNCTION     0.04     1.91     1.59     0  04:08        1.09
  j_90515              JUNCTION     0.07     2.39     1.98     0  04:08        1.16
  j_90516              JUNCTION     0.09     1.59     1.15     0  04:08        0.99
  j_90517              JUNCTION     0.08     1.73     0.81     0  04:08        1.32
  j_90518              JUNCTION     0.10     1.72     0.84     0  04:08        1.36
  j_90519              JUNCTION     0.08     1.75     0.92     0  04:08        1.36
  j_90520              JUNCTION     0.04     1.67     1.32     0  13:41        0.91
  j_90521              JUNCTION     0.02     1.78     1.54     0  13:41        0.80
  j_90522              JUNCTION     0.05     1.82     1.55     0  13:41        0.83
  j_90523              JUNCTION     0.02     1.80     1.60     0  13:41        0.77
  j_90524              JUNCTION     0.07     1.57     1.12     0  13:38        1.48
  j_90525              JUNCTION     0.05     1.67     1.32     0  04:07        1.41
  j_90526              JUNCTION     0.04     1.85     1.59     0  04:07        1.32
  j_90527              JUNCTION     0.03     1.78     1.60     0  04:07        1.24
  j_90549              JUNCTION     0.02     0.39    -0.02     0  13:45        0.39
  j_90550              JUNCTION     0.19     1.13    -0.10     0  13:45        1.13
  j_90551              JUNCTION     0.01     0.08     0.13     0  03:58        0.08
  j_90553              JUNCTION     0.08     2.00     1.62     0  04:05        1.25
  j_90554              JUNCTION     0.04     1.97     1.63     0  04:05        1.21
  j_90555              JUNCTION     0.03     1.95     1.71     0  04:05        1.11
  j_90556              JUNCTION     0.07     2.00     1.63     0  04:05        1.24
  j_90557              JUNCTION     0.08     1.87     1.49     0  04:05        1.24
  j_90558              JUNCTION     0.12     1.53     0.82     0  13:44        1.52
  j_90559              JUNCTION     0.07     1.41     0.83     0  13:44        1.40
  j_90560              JUNCTION     0.07     1.40     0.84     0  13:44        1.38
  j_90561              JUNCTION     0.04     1.37     0.99     0  04:05        1.18
  j_90562              JUNCTION     0.08     1.26     0.81     0  13:44        1.25
  j_90563              JUNCTION     0.11     1.46     0.76     0  13:44        1.45
  j_90564              JUNCTION     0.14     1.56     0.75     0  04:08        1.54
  j_90565              JUNCTION     0.03     1.41     1.07     0  04:08        1.07
  j_90566              JUNCTION     0.02     1.82     1.62     0  04:08        0.93
  j_90567              JUNCTION     0.01     0.10     0.13     0  03:58        0.10
  j_90568              JUNCTION     0.17     1.21     0.10     0  13:45        1.20
  j_90569              JUNCTION     0.07     1.95     1.63     0  04:08        1.05
  j_90570              JUNCTION     0.01     1.70     1.62     0  04:08        0.81
  j_90571              JUNCTION     0.05     1.62     1.19     0  04:08        1.15
  j_90572              JUNCTION     0.15     1.85     0.99     0  04:08        1.55
  j_90573              JUNCTION     0.03     1.16     0.82     0  04:08        1.06
  j_90574              JUNCTION     0.14     2.01     1.21     0  04:08        1.47
  j_90575              JUNCTION     0.19     2.33     1.42     0  04:08        1.50
  j_90576              JUNCTION     0.15     2.33     1.41     0  04:08        1.36
  j_90577              JUNCTION     0.16     1.30     0.32     0  13:45        1.30
  j_90578              JUNCTION     0.15     1.28     0.33     0  13:44        1.27
  j_90579              JUNCTION     0.12     1.26     0.38     0  13:42        1.21
  j_90580              JUNCTION     0.02     1.85     1.72     0  04:08        0.91
  j_90581              JUNCTION     0.03     1.82     1.58     0  04:07        1.02
  j_90582              JUNCTION     0.03     1.86     1.62     0  04:08        1.02
  j_90583              JUNCTION     0.03     1.56     1.25     0  04:08        1.06
  j_90584              JUNCTION     0.04     1.52     1.17     0  04:08        1.14
  j_90585              JUNCTION     0.14     2.11     1.28     0  04:08        1.53
  j_90586              JUNCTION     0.15     1.92     1.10     0  04:08        1.61
  j_90587              JUNCTION     0.14     1.79     1.00     0  04:08        1.63
  j_90588              JUNCTION     0.04     1.34     0.98     0  04:08        1.22
  j_90589              JUNCTION     0.03     1.53     1.25     0  13:38        1.15
  j_90590              JUNCTION     0.03     1.49     1.24     0  13:38        1.12
  j_90591              JUNCTION     0.10     1.60     0.99     0  04:08        1.58
  j_90592              JUNCTION     0.12     1.71     1.04     0  04:08        1.62
  j_90593              JUNCTION     0.14     1.84     1.05     0  04:08        1.68
  j_90594              JUNCTION     0.11     1.80     1.10     0  04:08        1.62
  j_90595              JUNCTION     0.04     1.62     1.28     0  04:08        1.26
  j_90596              JUNCTION     0.04     1.60     1.28     0  04:08        1.25
  j_90597              JUNCTION     0.04     1.79     1.51     0  04:08        1.21
  j_90598              JUNCTION     0.03     1.77     1.52     0  04:07        1.18
  j_90599              JUNCTION     0.05     1.85     1.56     0  04:08        1.22
  j_90600              JUNCTION     0.03     1.95     1.73     0  04:07        1.15
  j_90601              JUNCTION     0.02     1.96     1.79     0  04:07        1.10
  j_90602              JUNCTION     0.04     1.86     1.59     0  04:07        1.32
  j_90603              JUNCTION     0.04     1.89     1.60     0  04:07        1.33
  j_90604              JUNCTION     0.05     1.80     1.44     0  04:07        1.38
  j_90605              JUNCTION     0.08     1.70     1.24     0  04:07        1.46
  j_90606              JUNCTION     0.09     1.93     1.50     0  04:07        1.47
  j_90607              JUNCTION     0.05     1.97     1.59     0  04:07        1.42
  j_90608              JUNCTION     0.05     1.94     1.60     0  04:07        1.38
  j_90609              JUNCTION     0.02     1.73     1.56     0  04:07        1.22
  j_90610              JUNCTION     0.03     1.82     1.60     0  04:07        1.27
  j_90611              JUNCTION     0.04     1.84     1.57     0  04:07        1.32
  j_90612              JUNCTION     0.03     1.80     1.59     0  04:07        1.27
  j_90613              JUNCTION     0.02     1.70     1.60     0  04:07        1.16
  j_90615              JUNCTION     0.01     0.27    -0.02     0  13:45        0.27
  j_90616              JUNCTION     0.02     0.43     0.11     0  13:45        0.43
  j_90617              JUNCTION     0.01     0.44     0.21     0  13:45        0.44
  j_90618              JUNCTION     0.03     0.99     0.62     0  13:41        0.65
  j_90619              JUNCTION     0.17     1.27     0.27     0  13:45        1.27
  j_90620              JUNCTION     0.22     1.36     0.31     0  13:44        1.36
  j_90621              JUNCTION     0.17     1.46     0.48     0  13:41        1.41
  j_90623              JUNCTION     0.14     1.68     0.78     0  13:41        1.46
  j_90624              JUNCTION     0.09     1.58     0.79     0  13:41        1.35
  j_90625              JUNCTION     0.08     1.88     1.18     0  13:41        1.42
  j_90626              JUNCTION     0.11     1.85     1.03     0  13:41        1.48
  j_90627              JUNCTION     0.15     1.86     0.98     0  13:41        1.53
  j_90628              JUNCTION     0.04     1.57     1.16     0  13:41        1.15
  j_90629              JUNCTION     0.03     1.61     1.26     0  13:41        1.12
  j_90630              JUNCTION     0.02     1.44     1.25     0  13:43        0.52
  j_90631              JUNCTION     0.04     1.80     1.38     0  13:41        1.22
  j_90632              JUNCTION     0.04     1.78     1.33     0  13:41        1.23
  j_90633              JUNCTION     0.05     1.76     1.28     0  13:41        1.24
  j_90634              JUNCTION     0.19     2.09     1.21     0  13:41        1.62
  j_90635              JUNCTION     0.08     1.92     1.22     0  13:41        1.44
  j_90636              JUNCTION     0.08     1.90     1.33     0  13:41        1.34
  j_90637              JUNCTION     0.10     2.05     1.34     0  13:41        1.51
  j_90638              JUNCTION     0.06     1.91     1.43     0  13:41        1.31
  j_90639              JUNCTION     0.05     1.89     1.49     0  13:41        1.24
  j_90640              JUNCTION     0.03     1.73     1.44     0  13:41        1.11
  j_90641              JUNCTION     0.11     1.23     0.39     0  13:42        1.17
  j_90642              JUNCTION     0.07     1.12     0.39     0  13:42        1.06
  j_90643              JUNCTION     0.07     1.79     1.07     0  04:09        1.05
  j_90644              JUNCTION     0.02     0.99     0.84     0  13:43        0.49
  j_90645              JUNCTION     0.01     1.80     1.87     0  04:10        0.82
  j_90646              JUNCTION     0.04     1.73     1.63     0  13:41        0.99
  j_90647              JUNCTION     0.01     1.70     1.73     0  04:10        0.86
  j_90648              JUNCTION     0.03     1.87     1.58     0  13:41        1.15
  j_90649              JUNCTION     0.03     1.80     1.59     0  13:41        1.08
  j_90650              JUNCTION     0.05     1.89     1.51     0  13:41        1.25
  j_90651              JUNCTION     0.04     1.84     1.40     0  13:41        1.22
  j_90652              JUNCTION     0.04     1.86     1.44     0  13:41        1.21
  j_90653              JUNCTION     0.02     1.98     1.74     0  13:40        1.03
  j_90654              JUNCTION     0.10     2.08     1.48     0  13:41        1.55
  j_90655              JUNCTION     0.12     2.12     1.46     0  13:41        1.57
  j_90656              JUNCTION     0.12     2.11     1.42     0  13:41        1.54
  j_90657              JUNCTION     0.01     0.16     0.39     0  13:45        0.14
  j_90658              JUNCTION     0.01     0.26     0.39     0  13:45        0.25
  j_90659              JUNCTION     0.01     0.36     0.38     0  13:44        0.35
  j_90662              JUNCTION     0.01     0.30    -0.02     0  13:44        0.30
  j_90663              JUNCTION     0.05     1.26     0.83     0  13:44        1.25
  j_90664              JUNCTION     0.02     1.86     1.59     0  13:41        1.13
  j_90665              JUNCTION     0.15     1.28     0.31     0  13:44        1.28
  j_90669              JUNCTION     0.09     1.83     1.60     0  13:41        1.42
  j_90670              JUNCTION     0.11     1.87     1.62     0  13:42        1.45
  j_90671              JUNCTION     0.12     1.86     1.60     0  13:42        1.46
  j_90672              JUNCTION     0.06     1.96     1.50     0  13:41        1.47
  j_90673              JUNCTION     0.10     2.03     1.50     0  13:41        1.54
  j_90674              JUNCTION     0.10     2.08     1.48     0  13:41        1.56
  j_90675              JUNCTION     0.08     1.85     1.63     0  13:41        1.39
  j_90676              JUNCTION     0.10     1.83     1.59     0  13:41        1.43
  j_90677              JUNCTION     0.14     1.87     1.58     0  13:41        1.49
  j_90678              JUNCTION     0.03     1.67     1.57     0  13:41        1.31
  j_90679              JUNCTION     0.02     1.58     1.56     0  13:41        1.24
  j_90680              JUNCTION     0.07     1.92     1.62     0  13:41        1.43
  j_90681              JUNCTION     0.09     2.00     1.62     0  13:41        1.45
  j_90682              JUNCTION     0.01     1.59     1.56     0  13:41        1.10
  j_90683              JUNCTION     0.07     1.98     1.53     0  13:41        1.50
  j_90684              JUNCTION     0.04     1.90     1.54     0  13:41        1.41
  j_90685              JUNCTION     0.01     1.72     1.83     0  13:41        0.94
  j_90686              JUNCTION     0.05     2.04     1.64     0  13:41        1.45
  j_90688              JUNCTION     0.01     0.08     0.53     0  04:00        0.08
  j_90689              JUNCTION     0.02     0.19    -0.11     0  15:20        0.19
  j_90690              JUNCTION     0.02     0.18    -0.07     0  15:20        0.18
  j_90691              JUNCTION     0.01     0.10     0.20     0  15:20        0.10
  j_90692              JUNCTION     0.01     0.07     0.27     0  04:00        0.07
  j_90693              JUNCTION     0.01     0.16     0.19     0  13:45        0.14
  j_90694              JUNCTION     0.01     0.10     0.16     0  13:45        0.08
  j_90695              JUNCTION     0.01     0.07     0.57     0  04:00        0.07
  j_90696              JUNCTION     0.01     0.11     0.11     0  04:00        0.11
  j_90697              JUNCTION     0.01     0.14     0.07     0  15:20        0.14
  j_90698              JUNCTION     0.02     0.16     0.04     0  15:20        0.16
  j_90699              JUNCTION     0.02     0.17    -0.01     0  15:20        0.17
  j_90700              JUNCTION     0.01     0.05     0.55     0  04:00        0.05
  j_90701              JUNCTION     0.00     0.04     0.54     0  04:00        0.04
  j_90702              JUNCTION     0.00     0.04     0.54     0  04:00        0.04
  j_90703              JUNCTION     0.07     1.29     0.81     0  13:44        1.28
  j_90704              JUNCTION     0.03     1.14     0.92     0  04:06        1.01
  j_90705              JUNCTION     0.03     1.84     1.58     0  04:04        1.06
  j_90706              JUNCTION     0.08     1.52     0.98     0  13:44        1.51
  j_90707              JUNCTION     0.06     1.37     0.99     0  13:44        1.36
  j_90708              JUNCTION     0.02     1.11     1.00     0  13:44        1.11
  j_90709              JUNCTION     0.03     1.28     1.08     0  13:38        1.24
  j_90710              JUNCTION     0.02     1.62     1.57     0  13:38        1.10
  j_90724              JUNCTION     0.12     1.88     1.62     0  13:42        1.46
  j_90725              JUNCTION     0.02     1.77     1.77     0  13:41        1.21
  j_90726              JUNCTION     0.01     1.72     1.77     0  13:42        1.16
  j_90727              JUNCTION     0.01     1.67     1.77     0  13:42        1.11
  j_90728              JUNCTION     0.02     1.71     1.77     0  13:42        1.15
  j_90729              JUNCTION     0.01     1.54     1.77     0  13:42        0.98
  j_90730              JUNCTION     0.03     1.80     1.72     0  13:42        1.29
  j_90731              JUNCTION     0.01     1.67     1.77     0  13:42        1.11
  j_90732              JUNCTION     0.01     1.62     1.77     0  13:42        1.06
  j_90733              JUNCTION     0.04     1.79     1.65     0  13:41        1.34
  j_91272              JUNCTION     0.00     0.31     0.48     0  13:45        0.30
  j_91273              JUNCTION     0.00     0.00     0.47     0  13:45        0.00
  j_91274              JUNCTION     0.00     0.21     0.44     0  13:45        0.18
  j_91275              JUNCTION     0.00     0.00     0.47     0  00:00        0.00
  j_91276              JUNCTION     0.00     0.16     0.44     0  13:46        0.09
  j_91277              JUNCTION     0.00     0.00     0.51     0  00:00        0.00
  j_91278              JUNCTION     0.00     0.08     0.43     0  13:46        0.01
  j_91279              JUNCTION     0.00     0.00     0.50     0  00:00        0.00
  j_91292              JUNCTION     0.00     2.06     2.05     0  13:43        0.32
  j_91293              JUNCTION     0.01     0.53     0.30     0  13:45        0.53
  j_91294              JUNCTION     0.00     0.00     0.31     0  00:00        0.00
  j_90552              OUTFALL      0.00     0.00    -1.29     0  00:00        0.00
  j_90431              OUTFALL      0.02     0.27    -1.34     0  13:45        0.27
  
  
  *******************
  Node Inflow Summary
  *******************
  
  -------------------------------------------------------------------------------------------------
                                  Maximum  Maximum                  Lateral       Total        Flow
                                  Lateral    Total  Time of Max      Inflow      Inflow     Balance
                                   Inflow   Inflow   Occurrence      Volume      Volume       Error
  Node                 Type           CMS      CMS  days hr:min    10^6 ltr    10^6 ltr     Percent
  -------------------------------------------------------------------------------------------------
  j_9006F              JUNCTION     0.005    0.023     0  04:10      0.0184      0.0211       0.000
  j_90334              JUNCTION     0.015    0.015     0  04:00      0.0571      0.0571       0.000
  j_90335              JUNCTION     0.025    0.025     0  04:00      0.0901      0.0902       0.000
  j_90336              JUNCTION     0.004    0.046     0  13:42       0.015      0.0799       0.000
  j_90363              JUNCTION     0.028    0.028     0  04:00       0.101       0.101       0.000
  j_90364              JUNCTION     0.007    0.051     0  03:59      0.0268       0.192      -0.508
  j_90365              JUNCTION     0.001    0.004     0  21:00     0.00447     0.00685       0.678
  j_90366              JUNCTION     0.009    0.009     0  04:00      0.0335      0.0335       0.000
  j_90367              JUNCTION     0.008    0.065     0  04:00      0.0312       0.261      -0.080
  j_90368              JUNCTION     0.000    0.038     0  13:44           0     0.00963       1.129
  j_90369              JUNCTION     0.021    0.021     0  04:00      0.0769      0.0769       0.000
  j_90370              JUNCTION     0.009    0.051     0  03:58      0.0343       0.201      -0.426
  j_90371              JUNCTION     0.012    0.117     0  13:41      0.0455       0.592      -0.130
  j_90372              JUNCTION     0.005    0.007     0  04:00      0.0183      0.0186       0.000
  j_90373              JUNCTION     0.009    0.077     0  13:44      0.0318       0.129      -0.151
  j_90374              JUNCTION     0.000    0.020     0  13:46           0      0.0212       0.000
  j_90375              JUNCTION     0.011    0.087     0  13:44      0.0397       0.109      -0.091
  j_90376              JUNCTION     0.002    0.011     0  13:46     0.00662      0.0241       0.000
  j_90377              JUNCTION     0.009    0.087     0  13:45      0.0332       0.103      -0.390
  j_90378              JUNCTION     0.010    0.029     0  13:43      0.0366      0.0923       0.000
  j_90379              JUNCTION     0.014    0.032     0  13:42      0.0544      0.0549      -0.784
  j_90380              JUNCTION     0.017    0.018     0  13:42      0.0618      0.0618       0.000
  j_90381              JUNCTION     0.010    0.026     0  04:00      0.0371      0.0993       0.983
  j_90382              JUNCTION     0.012    0.237     0  13:42      0.0444        1.39      -0.057
  j_90383              JUNCTION     0.010    0.206     0  15:20      0.0381        1.25      -0.068
  j_90384              JUNCTION     0.006    0.029     0  13:42      0.0212       0.107       0.643
  j_90385              JUNCTION     0.008    0.024     0  13:42      0.0305      0.0862       0.425
  j_90386              JUNCTION     0.015    0.028     0  13:42      0.0549      0.0552      -0.737
  j_90387              JUNCTION     0.010    0.012     0  13:42      0.0355      0.0355       0.000
  j_90388              JUNCTION     0.006    0.018     0  04:10      0.0218      0.0576       1.354
  j_90389              JUNCTION     0.008    0.155     0  04:03      0.0289        0.87       0.000
  j_90390              JUNCTION     0.004    0.113     0  15:20      0.0158       0.637      -0.035
  j_90391              JUNCTION     0.005    0.057     0  13:47      0.0199       0.205       0.106
  j_90392              JUNCTION     0.011    0.052     0  13:47      0.0415       0.187       0.099
  j_90393              JUNCTION     0.018    0.043     0  13:43      0.0681       0.148      -0.147
  j_90394              JUNCTION     0.006    0.047     0  13:43      0.0217      0.0636       0.284
  j_90395              JUNCTION     0.007    0.049     0  13:44      0.0262      0.0401      -0.081
  j_90396              JUNCTION     0.003    0.040     0  13:44      0.0106      0.0117      -0.564
  j_90397              JUNCTION     0.008    0.184     0  15:19      0.0302        1.11      -0.043
  j_90398              JUNCTION     0.009    0.093     0  13:42      0.0341       0.217      -0.175
  j_90399              JUNCTION     0.010    0.031     0  13:41      0.0358        0.06       1.315
  j_90400              JUNCTION     0.006    0.074     0  13:41      0.0227      0.0618      -0.276
  j_90401              JUNCTION     0.010    0.057     0  04:09       0.036      0.0829       0.138
  j_90402              JUNCTION     0.010    0.029     0  13:41       0.036        0.06       0.000
  j_90403              JUNCTION     0.006    0.075     0  13:41      0.0213      0.0527      -0.358
  j_90404              JUNCTION     0.009    0.043     0  13:41      0.0346      0.0597       1.109
  j_90405              JUNCTION     0.010    0.059     0  13:42      0.0371        0.14       0.011
  j_90406              JUNCTION     0.009    0.067     0  13:41      0.0345        0.12      -0.469
  j_90407              JUNCTION     0.007    0.063     0  13:41      0.0268      0.0527      -0.750
  j_90408              JUNCTION     0.019    0.056     0  13:41      0.0712      0.0876       0.200
  j_90427              JUNCTION     0.020    0.086     0  13:45      0.0744       0.168       0.000
  j_90428              JUNCTION     0.011    0.096     0  13:45      0.0424       0.126      -0.382
  j_90430              JUNCTION     0.006    1.400     0  13:45      0.0229        5.61       0.007
  j_90433              JUNCTION     0.003    0.003     0  04:00      0.0115      0.0119       0.000
  j_90434              JUNCTION     0.007    0.082     0  13:45      0.0261       0.124       0.441
  j_90435              JUNCTION     0.011    0.090     0  13:45        0.04       0.163      -0.035
  j_90436              JUNCTION     0.006    0.068     0  15:20      0.0233       0.275       0.000
  j_90437              JUNCTION     0.014    1.410     0  13:45       0.052        5.59      -0.007
  j_90438              JUNCTION     0.011    1.254     0  13:45      0.0411         5.1       0.004
  j_90439              JUNCTION     0.006    0.126     0  13:44      0.0236       0.173       0.000
  j_90440              JUNCTION     0.019    0.113     0  13:45      0.0721       0.143       0.207
  j_90441              JUNCTION     0.009    0.009     0  04:00      0.0334      0.0334      -0.192
  j_90442              JUNCTION     0.020    0.316     0  13:43      0.0767        1.16       0.194
  j_90443              JUNCTION     0.028    1.124     0  13:44       0.106        4.87      -0.041
  j_90444              JUNCTION     0.011    0.337     0  13:45      0.0418        1.86      -0.031
  j_90445              JUNCTION     0.010    0.052     0  13:45      0.0368       0.128       0.295
  j_90446              JUNCTION     0.010    0.030     0  13:45      0.0362      0.0919       0.291
[...]
  c_904511                    0.06      0.06      0.15      0.01         0.01
  c_904512                    0.44      0.44      0.51      0.01         0.02
  c_904521                    0.06      0.06      0.07      0.01         0.01
  c_904531                    0.43      0.43      0.43      0.22         0.12
  c_904532                    0.43      0.43      0.44      0.11         0.12
  c_904533                    0.07      0.07      0.10      0.01         0.01
  c_904541                    0.07      0.07      0.11      0.01         0.01
  c_904551                    0.15      0.15      0.19      0.01         0.01
  c_904561                    0.16      0.16      0.28      0.01         0.01
  c_904571                    0.26      0.30      0.26      0.71         0.25
  c_904591                    0.08      0.08      0.25      0.01         0.01
  c_904592                    0.29      0.29      0.41      1.15         0.01
  c_904611                    0.47      0.47      0.50      0.01         0.01
  c_904612                    0.29      0.29      0.41      0.29         0.01
  c_904621                    0.31      0.33      0.31      0.50         0.31
  c_904641                    0.39      0.39      0.52      0.01         0.01
  c_904651                    0.30      0.30      0.39      0.01         0.01
  c_904661                    0.19      0.19      0.30      0.01         0.01
  c_904662                    0.09      0.09      0.19      0.01         0.01
  c_904671                    0.10      0.10      0.21      0.01         0.01
  c_904681                    0.18      0.18      0.34      0.01         0.01
  c_904691                    0.34      0.34      0.36      0.07         0.01
  c_904701                    0.37      0.37      0.50      0.01         0.01
  c_904711                    0.30      0.30      0.33      0.01         0.01
  c_904791                    0.28      0.28      0.42      0.01         0.01
  c_904801                    0.22      0.22      0.29      0.01         0.01
  c_904811                    0.22      0.22      0.31      0.01         0.01
  c_904821                    0.42      0.42      0.46      0.01         0.01
  c_904822                    0.41      0.41      0.46      0.01         0.01
  c_904831                    0.26      0.26      0.38      0.01         0.01
  c_904851                    0.18      0.18      0.28      0.01         0.01
  c_904861                    0.48      0.48      0.57      0.12         0.01
  c_904862                    0.27      0.27      0.40      0.01         0.01
  c_904871                    0.46      0.46      0.67      0.01         0.01
  c_904881                    0.67      0.67      1.02      0.01         0.01
  c_904882                    0.32      0.35      0.32      0.40         0.31
  c_904891                    0.15      0.15      0.21      0.01         0.01
  c_904901                    0.16      0.16      0.22      0.01         0.01
  c_904921                    0.71      0.71      0.90      0.29         0.29
  c_904922                    0.22      0.22      0.51      0.01         0.01
  c_904931                    0.24      0.24      0.30      0.01         0.01
  c_904951                    1.33      1.33      1.43      0.04         0.02
  c_904952                    1.81      1.81      1.85      0.42         0.22
  c_904961                    0.21      0.21      0.51      0.01         0.01
  c_904971                    0.15      0.15      0.23      0.01         0.01
  c_904981                    0.15      0.15      0.28      0.01         0.01
  c_904982                    0.21      0.21      0.35      0.01         0.01
  c_904991                    0.47      0.47      0.47      0.55         0.35
  c_905001                    0.31      0.31      0.47      0.01         0.01
  c_905011                    0.19      0.19      0.29      0.01         0.01
  c_905021                    0.17      0.17      0.19      0.01         0.01
  c_905031                    0.17      0.17      0.19      0.01         0.01
  c_905041                    0.17      0.17      0.18      0.01         0.01
  c_905042                    0.17      0.17      0.21      0.01         0.01
  c_905051                    0.60      0.60      1.16      0.01         0.01
  c_905061                    0.60      0.60      0.67      0.43         0.01
  c_905071                    0.36      0.36      0.67      0.01         0.01
  c_905072                    0.18      0.18      0.36      0.01         0.01
  c_905081                    0.50      0.50      0.59      0.01         0.01
  c_905091                    0.19      0.19      0.41      0.01         0.01
  c_905101                    0.17      0.17      0.26      0.01         0.01
  c_905111                    0.26      0.26      0.49      0.01         0.01
  c_905121                    1.05      1.05      1.16      0.01         0.01
  c_905131                    0.18      0.18      0.60      0.01         0.01
  c_905141                    0.19      0.19      0.29      0.01         0.01
  c_905151                    0.15      0.15      0.19      0.01         0.01
  c_905152                    0.18      0.18      0.24      0.15         0.13
  c_905161                    0.19      0.27      0.19      0.60         0.19
  c_905171                    0.52      0.52      0.63      0.01         0.01
  c_905172                    0.33      0.33      0.33      0.33         0.30
  c_905181                    0.15      0.15      0.21      0.01         0.01
  c_905182                    0.46      0.46      0.53      0.65         0.01
  c_905191                    0.33      0.33      0.42      0.01         0.01
  c_905192                    0.49      0.49      0.53      0.01         0.01
  c_905201                    0.12      0.13      0.13      0.02         0.02
  c_905211                    0.08      0.08      0.13      0.01         0.01
  c_905221                    0.08      0.08      0.10      0.01         0.01
  c_905231                    0.06      0.06      0.08      0.01         0.01
  c_905241                    0.65      0.65      1.09      0.01         0.01
  c_905251                    0.42      0.42      0.65      0.01         0.01
  c_905261                    0.22      0.22      0.42      0.01         0.01
  c_905271                    0.17      0.17      0.22      0.01         0.01
  c_905521                    0.01      0.01      0.01      0.86         0.01
  c_905541                    0.30      0.30      0.38      0.01         0.01
  c_905551                    0.22      0.23      0.25      0.01         0.01
  c_905561                    0.36      0.36      0.38      0.01         0.01
  c_905571                    0.36      0.36      0.36      1.35         0.06
  c_905572                    0.32      0.32      0.38      0.01         0.01
  c_905581                    0.33      0.33      0.60      0.01         0.01
  c_905591                    0.42      0.42      0.69      0.01         0.01
  c_905601                    0.69      0.69      0.80      0.05         0.03
  c_905602                    0.29      0.29      0.69      0.01         0.01
  c_905611                    0.39      0.39      0.42      0.01         0.01
  c_905621                    0.39      0.39      0.47      0.01         0.01
  c_905622                    0.28      0.28      0.47      0.01         0.01
  c_905631                    0.43      0.43      0.52      0.01         0.01
  c_905632                    0.62      0.62      0.66      4.53         0.03
  c_905641                    0.34      0.34      0.45      0.01         0.01
  c_905651                    0.26      0.26      0.47      0.01         0.01
  c_905661                    0.16      0.16      0.21      0.01         0.01
  c_905681                    0.01      0.01      0.01      0.07         0.01
  c_905691                    0.15      0.15      0.24      0.01         0.01
  c_905701                    0.11      0.11      0.14      0.01         0.01
  c_905711                    0.20      0.20      0.36      0.01         0.01
  c_905721                    0.54      0.54      0.55      0.27         0.27
  c_905722                    0.38      0.38      0.62      0.01         0.01
  c_905731                    0.24      0.24      0.24      0.28         0.17
  c_905732                    0.26      0.26      0.50      0.01         0.01
  c_905741                    1.85      1.85      2.25      0.01         0.03
  c_905751                    2.04      2.04      3.06      0.01         0.01
  c_905752                    0.62      0.62      0.74      0.25         0.26
  c_905761                    0.14      0.15      0.14      0.33         0.12
  c_905771                    0.10      0.14      0.10      0.18         0.08
  c_905781                    0.58      0.58      0.66      0.01         0.01
  c_905791                    0.42      0.42      0.58      0.01         0.01
  c_905811                    0.14      0.14      0.17      0.01         0.01
  c_905821                    0.17      0.17      0.17      0.55         0.01
  c_905831                    0.16      0.16      0.20      0.01         0.01
  c_905841                    0.17      0.17      0.26      0.01         0.01
  c_905851                    0.56      0.56      0.70      0.15         0.14
  c_905852                    0.20      0.20      0.53      0.01         0.01
  c_905861                    0.53      0.58      0.53      5.84         0.53
  c_905862                    0.26      0.26      0.47      0.01         0.01
  c_905871                    0.54      0.54      0.58      0.16         0.15
  c_905881                    0.32      0.32      0.70      0.01         0.01
  c_905891                    0.22      0.22      0.32      0.01         0.01
  c_905892                    0.17      0.17      0.22      0.01         0.01
  c_905901                    0.19      0.19      0.50      0.01         0.01
  c_905902                    0.19      0.19      0.20      0.01         0.01
  c_905921                    1.36      1.36      1.56      0.01         0.01
  c_905931                    0.54      0.57      0.54      5.00         0.54
  c_905941                    0.40      0.40      0.57      0.01         0.01
  c_905942                    1.42      1.42      1.56      2.09         0.01
  c_905951                    0.30      0.30      0.52      0.01         0.01
  c_905961                    0.28      0.28      0.52      0.01         0.01
  c_905971                    0.23      0.23      0.30      0.01         0.01
  c_905981                    0.20      0.20      0.28      0.01         0.01
  c_905982                    0.20      0.20      0.23      0.01         0.01
  c_905991                    0.23      0.23      0.24      0.01         0.01
  c_906001                    0.18      0.18      0.23      0.01         0.01
  c_906011                    0.15      0.15      0.18      0.01         0.01
  c_906031                    0.25      0.25      0.27      0.01         0.01
  c_906041                    0.25      0.25      0.38      0.01         0.01
  c_906051                    0.36      0.36      0.54      0.01         0.01
  c_906052                    0.27      0.27      0.42      0.01         0.01
  c_906061                    0.44      0.44      0.54      0.01         0.01
  c_906071                    0.41      0.41      0.49      0.01         0.01
  c_906081                    0.35      0.35      0.41      0.01         0.01
  c_906082                    0.28      0.28      0.35      0.01         0.01
  c_906091                    0.17      0.17      0.25      0.01         0.01
  c_906101                    0.17      0.17      0.20      0.01         0.01
  c_906111                    0.26      0.26      0.42      0.01         0.01
  c_906112                    0.20      0.20      0.24      0.01         0.01
  c_906121                    0.19      0.19      0.26      0.01         0.01
  c_906131                    0.16      0.16      0.19      0.01         0.01
  c_906132                    0.16      0.16      0.17      0.01         0.01
  c_906161                    0.01      0.01      0.01      0.06         0.01
  c_906171                    0.01      0.01      0.01      0.03         0.01
  c_906181                    0.01      0.01      0.09      0.01         0.01
  c_906191                    0.01      0.01      0.01      0.08         0.01
  c_906192                    0.09      0.10      0.09      0.24         0.08
  c_906201                    0.33      0.33      0.35      4.12         0.01
  c_906202                    0.09      0.09      0.20      0.01         0.01
  c_906211                    0.36      0.36      0.45      0.06         0.05
  c_906231                    0.27      0.27      0.36      0.05         0.05
  c_906241                    1.42      1.42      1.88      0.01         0.01
  c_906261                    1.01      1.01      1.70      0.01         0.01
  c_906271                    1.70      1.70      1.80      0.01         0.01
  c_906272                    0.27      0.28      0.27      0.42         0.23
  c_906281                    0.28      0.28      0.44      0.01         0.01
  c_906291                    0.19      0.19      0.28      0.01         0.01
  c_906301                    0.04      0.04      0.04      0.01         0.01
  c_906321                    0.08      0.08      0.19      0.01         0.01
  c_906322                    0.30      0.31      0.30      1.42         0.27
  c_906331                    0.34      0.34      0.39      0.01         0.01
  c_906341                    0.39      0.39      0.65      0.01         0.01
  c_906342                    0.23      0.23      0.24      0.20         0.14
  c_906351                    0.76      0.76      1.01      0.01         0.01
  c_906352                    1.03      1.03      1.12      0.01         0.01
  c_906361                    0.51      0.51      0.92      0.01         0.01
  c_906371                    0.11      0.11      0.31      0.01         0.01
  c_906381                    0.40      0.40      0.54      0.01         0.01
  c_906391                    0.28      0.28      0.42      0.01         0.01
  c_906401                    0.10      0.10      0.15      0.01         0.01
  c_906402                    0.15      0.15      0.24      0.01         0.01
  c_906411                    0.34      0.34      0.42      0.01         0.01
  c_906421                    0.16      0.16      0.34      0.01         0.01
  c_906431                    0.15      0.15      0.16      0.01         0.01
  c_906441                    0.02      0.02      0.04      0.01         0.01
  c_906461                    0.06      0.06      0.13      0.01         0.01
  c_906471                    0.07      0.07      0.11      0.01         0.01
  c_906481                    0.17      0.17      0.29      0.01         0.01
  c_906491                    0.08      0.08      0.14      0.01         0.01
  c_906492                    0.11      0.12      0.13      0.01         0.02
  c_906501                    0.10      0.10      0.27      0.01         0.01
  c_906511                    0.33      0.33      0.57      0.01         0.01
  c_906521                    0.29      0.29      0.33      0.01         0.01
  c_906531                    0.09      0.09      0.29      0.01         0.01
  c_906541                    0.19      0.19      0.27      0.01         0.01
  c_906561                    0.23      0.23      0.27      0.69         0.01
  c_906562                    0.10      0.10      0.11      0.07         0.05
  c_906563                    0.27      0.27      0.48      0.01         0.01
  c_906591                    0.02      0.02      0.03      0.01         0.01
  c_906592                    0.01      0.01      0.02      0.01         0.01
  c_906631                    0.42      0.43      0.42      1.13         0.32
  c_906641                    0.14      0.14      0.14      0.01         0.03
  c_906651                    2.73      2.73      2.73      0.14         0.34
  c_906701                    0.21      0.21      0.31      0.01         0.01
  c_906731                    1.47      1.48      1.47      1.13         0.67
  c_906741                    0.28      0.28      0.28      1.93         0.23
  c_906742                    0.11      0.11      0.18      0.01         0.01
  c_906751                    0.11      0.11      0.12      0.03         0.04
  c_906761                    0.15      0.15      0.24      0.03         0.01
  c_906771                    0.24      0.24      0.42      0.01         0.01
  c_906772                    0.37      0.37      0.42      0.01         0.01
  c_906781                    0.34      0.34      1.43      0.01         0.01
  c_906791                    0.13      0.13      0.34      0.01         0.01
  c_906801                    0.07      0.07      0.08      0.01         0.01
  c_906811                    0.09      0.09      0.13      0.01         0.02
  c_906821                    0.10      0.10      1.23      0.01         0.01
  c_906831                    0.06      0.06      0.07      0.01         0.01
  c_906832                    0.08      0.08      0.13      0.01         0.01
  c_906841                    1.03      1.03      1.12      0.01         0.01
  c_906851                    0.07      0.07      0.09      0.01         0.01
  c_906861                    0.18      0.18      0.24      0.01         0.01
  c_906862                    0.12      0.12      0.18      0.01         0.01
  c_907031                    0.48      0.48      0.52      0.01         0.01
  c_907032                    0.43      0.43      0.71      0.01         0.01
  c_907033                    0.52      0.52      0.64      0.01         0.01
  c_907041                    0.20      0.20      0.22      0.01         0.01
  c_907042                    0.18      0.18      0.20      0.01         0.01
  c_907051                    0.24      0.24      0.39      0.01         0.01
  c_907061                    1.07      1.07      1.31      0.01         0.01
  c_907062                    1.07      1.07      1.36      0.01         0.01
  c_907071                    0.56      0.56      0.58      0.01         0.04
  c_907081                    0.22      0.22      0.48      0.01         0.01
  c_907091                    0.41      0.41      1.04      0.01         0.01
  c_907101                    0.18      0.18      0.41      0.01         0.01
  c_907241                    0.31      0.31      0.37      0.01         0.01
  c_907242                    0.37      0.37      0.37      0.59         0.13
  c_907251                    0.11      0.11      0.62      0.01         0.01
  c_907261                    0.07      0.07      0.11      0.01         0.01
  c_907271                    0.06      0.06      0.07      0.01         0.01
  c_907281                    0.05      0.05      0.07      0.01         0.01
  c_907291                    0.04      0.04      0.07      0.01         0.01
  c_907301                    0.07      0.07      0.24      0.01         0.01
  c_907311                    0.06      0.06      0.24      0.01         0.01
  c_907321                    0.05      0.05      0.06      0.01         0.01
  c_907331                    0.24      0.24      0.49      0.01         0.01
  c_907332                    0.49      0.49      0.62      0.01         0.01
  c_912721                    0.02      0.02      0.02      0.02         0.01
  c_912741                    0.01      0.01      0.02      0.01         0.01
  c_912931                    0.03      0.03      0.33      0.01         0.01
  c_912932                    0.33      0.33      0.35      0.01         0.01
  

  Analysis begun on:  Sun Jun 12 01:34:31 2022
  Analysis ended on:  Sun Jun 12 01:35:05 2022
  Total elapsed time: 00:00:34