
  EPA STORM WATER MANAGEMENT MODEL - VERSION 5.1 (Build 5.1.015)
  --------------------------------------------------------------

  WARNING 04: minimum elevation drop used for Conduit c_903642
  WARNING 04: minimum elevation drop used for Conduit c_903651
  WARNING 04: minimum elevation drop used for Conduit c_903672
  WARNING 04: minimum elevation drop used for Conduit c_905571
  WARNING 04: minimum elevation drop used for Conduit c_905632
  WARNING 04: minimum elevation drop used for Conduit c_905821
  WARNING 04: minimum elevation drop used for Conduit c_905861
  WARNING 04: minimum elevation drop used for Conduit c_905931
  WARNING 04: minimum elevation drop used for Conduit c_906201
  WARNING 04: minimum elevation drop used for Conduit c_906322
  WARNING 04: minimum elevation drop used for Conduit c_906631
  WARNING 04: minimum elevation drop used for Conduit c_906641
  WARNING 04: minimum elevation drop used for Conduit c_906651
  WARNING 04: minimum elevation drop used for Conduit c_906731
  WARNING 04: minimum elevation drop used for Conduit c_906741
  WARNING 04: minimum elevation drop used for Conduit c_907242
  
  *********************
  Rainfall File Summary
  *********************
  Station    First        Last         Recording   Periods    Periods    Periods
  ID         Date         Date         Frequency  w/Precip    Missing    Malfunc.
  -------------------------------------------------------------------------------
  R1         01/01/2019   01/01/2019       5 min        47          0          0
  R1         01/01/2019   01/01/2019       5 min        47          0          0
  R1         01/01/2019   01/01/2019       5 min        47          0          0

  
  *********************************************************
  NOTE: The summary statistics displayed in this report are
  based on results found at every computational time step,  
  not just on results from each reporting time step.
  *********************************************************
  
  ****************
  Analysis Options
  ****************
  Flow Units ............... CMS
  Process Models:
    Rainfall/Runoff ........ YES
    RDII ................... NO
    Snowmelt ............... NO
    Groundwater ............ NO
    Flow Routing ........... YES
    Ponding Allowed ........ NO
    Water Quality .......... NO
  Infiltration Method ...... HORTON
  Flow Routing Method ...... DYNWAVE
  Surcharge Method ......... EXTRAN
  Starting Date ............ 01/01/2019 00:00:00
  Ending Date .............. 01/01/2019 03:55:00
  Antecedent Dry Days ...... 0.0
  Report Time Step ......... 00:05:00
  Wet Time Step ............ 00:01:00
  Dry Time Step ............ 00:10:00
  Routing Time Step ........ 1.00 sec
  Variable Time Step ....... YES
  Maximum Trials ........... 12
  Number of Threads ........ 2
  Head Tolerance ........... 0.000200 m
  
  
  **************************        Volume         Depth
  Runoff Quantity Continuity     hectare-m            mm
  **************************     ---------       -------
  Total Precipitation ......         0.490        17.672
  Evaporation Loss .........         0.003         0.116
  Infiltration Loss ........         0.018         0.655
  Surface Runoff ...........         0.371        13.381
  Final Storage ............         0.102         3.679
  Continuity Error (%) .....        -0.899
  
  
  **************************        Volume        Volume
  Flow Routing Continuity        hectare-m      10^6 ltr
  **************************     ---------     ---------
  Dry Weather Inflow .......         0.000         0.000
  Wet Weather Inflow .......         0.371         3.713
  Groundwater Inflow .......         0.000         0.000
  RDII Inflow ..............         0.000         0.000
  External Inflow ..........         0.000         0.000
  External Outflow .........         0.371         3.708
  Flooding Loss ............         0.000         0.000
  Evaporation Loss .........         0.000         0.000
  Exfiltration Loss ........         0.000         0.000
  Initial Stored Volume ....         0.000         0.000
  Final Stored Volume ......         0.002         0.017
  Continuity Error (%) .....        -0.337
  
  
  *************************
  Highest Continuity Errors
  *************************
  Node j_90618 (2.15%)
  Node j_90434 (1.92%)
  Node j_90650 (1.91%)
  Node j_90638 (1.82%)
  Node j_90457 (1.81%)
  
  
  ***************************
  Time-Step Critical Elements
  ***************************
  Link c_904312 (28.73%)
  
  
  ********************************
  Highest Flow Instability Indexes
  ********************************
  Link c_906651 (3)
  Link c_904611 (1)
  
  
  *************************
  Routing Time Step Summary
  *************************
  Minimum Time Step           :     0.15 sec
  Average Time Step           :     0.90 sec
  Maximum Time Step           :     1.00 sec
  Percent in Steady State     :     2.12
  Average Iterations per Step :     2.65
  Percent Not Converging      :     5.31
  Time Step Frequencies       :
      1.000 -  0.871 sec      :    73.86 %
      0.871 -  0.758 sec      :     3.57 %
      0.758 -  0.660 sec      :     4.18 %
      0.660 -  0.574 sec      :     6.24 %
      0.574 -  0.500 sec      :    12.14 %
  
  
  ***************************
  Subcatchment Runoff Summary
  ***************************
  
  ------------------------------------------------------------------------------------------------------------------------------
                            Total      Total      Total      Total     Imperv       Perv      Total       Total     Peak  Runoff
                           Precip      Runon       Evap      Infil     Runoff     Runoff     Runoff      Runoff   Runoff   Coeff
  Subcatchment                 mm         mm         mm         mm         mm         mm         mm    10^6 ltr      CMS
  ------------------------------------------------------------------------------------------------------------------------------
  sub_9006F                 17.67       0.00       0.12       0.54       7.90       5.22      13.12        0.01     0.00   0.742
  sub_90334                 17.67       0.00       0.11       1.43       1.43      13.77      15.20        0.02     0.01   0.860
  sub_90335                 17.67       0.00       0.12       0.33       9.46       3.16      12.62        0.02     0.02   0.714
  sub_90336                 17.67       0.00       0.11       1.10       3.82      10.61      14.43        0.00     0.00   0.817
  sub_90363                 17.67       0.00       0.12       0.33       9.44       3.19      12.63        0.03     0.02   0.715
  sub_90364                 17.67       0.00       0.11       1.22       3.02      11.67      14.69        0.01     0.01   0.831
  sub_90365                 17.67       0.00       0.11       1.63       0.00      15.66      15.66        0.00     0.00   0.886
  sub_90366                 17.67       0.00       0.12       0.55       7.84       5.29      13.14        0.01     0.01   0.743
  sub_90367                 17.67       0.00       0.12       0.93       5.10       8.91      14.02        0.01     0.01   0.793
  sub_90369                 17.67       0.00       0.12       0.66       7.02       6.38      13.40        0.02     0.02   0.758
  sub_90370                 17.67       0.00       0.12       0.45       8.60       4.29      12.89        0.01     0.01   0.730
  sub_90371                 17.67       0.00       0.12       0.23      10.16       2.24      12.40        0.01     0.01   0.701
  sub_90372                 17.67       0.00       0.11       1.03       4.37       9.89      14.26        0.01     0.00   0.807
  sub_90373                 17.67       0.00       0.12       0.07      11.34       0.68      12.02        0.01     0.01   0.680
  sub_90375                 17.67       0.00       0.12       0.33       9.48       3.13      12.61        0.01     0.01   0.714
  sub_90376                 17.67       0.00       0.12       0.58       7.62       5.59      13.21        0.00     0.00   0.748
  sub_90377                 17.67       0.00       0.12       0.34       9.35       3.31      12.66        0.01     0.01   0.716
  sub_90378                 17.67       0.00       0.12       0.46       8.51       4.42      12.93        0.01     0.01   0.731
  sub_90379                 17.67       0.00       0.12       0.77       6.24       7.42      13.66        0.02     0.01   0.773
  sub_90380                 17.67       0.00       0.12       0.70       6.75       6.75      13.49        0.02     0.01   0.763
  sub_90381                 17.67       0.00       0.12       0.71       6.68       6.83      13.51        0.01     0.01   0.765
  sub_90382                 17.67       0.00       0.12       0.59       7.56       5.66      13.23        0.01     0.01   0.749
  sub_90383                 17.67       0.00       0.12       0.50       8.19       4.83      13.03        0.01     0.01   0.737
  sub_90384                 17.67       0.00       0.11       0.96       4.85       9.25      14.10        0.01     0.00   0.798
  sub_90385                 17.67       0.00       0.12       0.43       8.75       4.10      12.85        0.01     0.01   0.727
  sub_90386                 17.67       0.00       0.12       0.78       6.18       7.49      13.67        0.02     0.01   0.774
  sub_90387                 17.67       0.00       0.12       0.61       7.43       5.85      13.27        0.01     0.01   0.751
  sub_90388                 17.67       0.00       0.12       0.60       7.47       5.79      13.26        0.01     0.00   0.750
  sub_90389                 17.67       0.00       0.12       0.67       6.99       6.42      13.41        0.01     0.01   0.759
  sub_90390                 17.67       0.00       0.12       0.84       5.75       8.07      13.81        0.00     0.00   0.782
  sub_90391                 17.67       0.00       0.11       1.63       0.00      15.66      15.66        0.01     0.00   0.886
  sub_90392                 17.67       0.00       0.11       1.04       4.27      10.02      14.29        0.01     0.01   0.809
  sub_90393                 17.67       0.00       0.11       1.03       4.37       9.89      14.26        0.02     0.01   0.807
  sub_90394                 17.67       0.00       0.11       0.98       4.74       9.40      14.14        0.01     0.00   0.800
  sub_90395                 17.67       0.00       0.12       0.38       9.10       3.64      12.74        0.01     0.01   0.721
  sub_90396                 17.67       0.00       0.12       0.00      11.85       0.00      11.85        0.00     0.00   0.671
  sub_90397                 17.67       0.00       0.12       0.88       5.46       8.45      13.91        0.01     0.01   0.787
  sub_90398                 17.67       0.00       0.12       0.92       5.17       8.82      14.00        0.01     0.01   0.792
  sub_90399                 17.67       0.00       0.12       0.51       8.11       4.95      13.05        0.01     0.01   0.739
  sub_90400                 17.67       0.00       0.12       0.61       7.41       5.87      13.28        0.01     0.01   0.751
  sub_90401                 17.67       0.00       0.12       0.36       9.23       3.46      12.69        0.01     0.01   0.718
  sub_90402                 17.67       0.00       0.12       0.38       9.08       3.66      12.74        0.01     0.01   0.721
  sub_90403                 17.67       0.00       0.12       0.62       7.37       5.92      13.29        0.01     0.00   0.752
  sub_90404                 17.67       0.00       0.12       0.65       7.14       6.22      13.36        0.01     0.01   0.756
  sub_90405                 17.67       0.00       0.12       0.71       6.68       6.83      13.51        0.01     0.01   0.765
  sub_90406                 17.67       0.00       0.12       0.86       5.60       8.27      13.86        0.01     0.01   0.784
  sub_90407                 17.67       0.00       0.12       0.84       5.71       8.11      13.82        0.01     0.01   0.782
  sub_90408                 17.67       0.00       0.12       0.54       7.93       5.19      13.11        0.02     0.02   0.742
  sub_90427                 17.67       0.00       0.12       0.63       7.25       6.09      13.33        0.02     0.02   0.754
  sub_90428                 17.67       0.00       0.12       0.77       6.26       7.39      13.65        0.01     0.01   0.772
  sub_90430                 17.67       0.00       0.12       0.37       9.19       3.52      12.71        0.01     0.01   0.719
  sub_90431                 17.67       0.00       0.12       0.59       7.56       5.67      13.23        0.01     0.01   0.749
  sub_90433                 17.67       0.00       0.12       0.81       5.93       7.83      13.76        0.00     0.00   0.778
  sub_90434                 17.67       0.00       0.12       0.29       9.73       2.80      12.53        0.01     0.01   0.709
  sub_90435                 17.67       0.00       0.12       0.52       8.09       4.97      13.06        0.01     0.01   0.739
  sub_90436                 17.67       0.00       0.12       0.26       9.95       2.51      12.46        0.01     0.01   0.705
  sub_90437                 17.67       0.00       0.12       0.41       8.86       3.95      12.81        0.01     0.01   0.725
  sub_90438                 17.67       0.00       0.12       0.58       7.63       5.58      13.21        0.01     0.01   0.747
  sub_90439                 17.67       0.00       0.12       0.59       7.58       5.64      13.22        0.01     0.01   0.748
  sub_90440                 17.67       0.00       0.12       0.66       7.02       6.39      13.41        0.02     0.02   0.759
  sub_90441                 17.67       0.00       0.11       1.09       3.95      10.44      14.39        0.01     0.01   0.814
  sub_90442                 17.67       0.00       0.11       1.28       2.57      12.27      14.84        0.02     0.02   0.840
  sub_90443                 17.67       0.00       0.11       0.95       4.93       9.14      14.08        0.03     0.02   0.796
  sub_90444                 17.67       0.00       0.12       0.46       8.52       4.40      12.92        0.01     0.01   0.731
  sub_90445                 17.67       0.00       0.12       0.80       6.00       7.73      13.73        0.01     0.01   0.777
  sub_90446                 17.67       0.00       0.12       0.49       8.31       4.68      12.99        0.01     0.01   0.735
  sub_90447                 17.67       0.00       0.12       0.76       6.34       7.28      13.62        0.02     0.01   0.771
  sub_90448                 17.67       0.00       0.12       0.70       6.73       6.77      13.50        0.02     0.01   0.764
  sub_90449                 17.67       0.00       0.12       0.66       7.02       6.38      13.40        0.01     0.01   0.758
  sub_90450                 17.67       0.00       0.12       0.56       7.76       5.40      13.16        0.00     0.00   0.745
  sub_90451                 17.67       0.00       0.12       0.71       6.66       6.86      13.52        0.01     0.01   0.765
  sub_90452                 17.67       0.00       0.12       0.92       5.18       8.81      13.99        0.01     0.01   0.792
  sub_90453                 17.67       0.00       0.12       0.47       8.42       4.53      12.95        0.01     0.01   0.733
  sub_90454                 17.67       0.00       0.12       0.63       7.24       6.10      13.33        0.01     0.01   0.755
  sub_90455                 17.67       0.00       0.12       0.35       9.31       3.36      12.67        0.01     0.01   0.717
  sub_90456                 17.67       0.00       0.12       0.95       4.98       9.08      14.06        0.02     0.02   0.796
  sub_90457                 17.67       0.00       0.12       0.93       5.09       8.94      14.02        0.02     0.02   0.794
  sub_90459                 17.67       0.00       0.11       1.13       3.65      10.84      14.49        0.03     0.02   0.820
  sub_90460                 17.67       0.00       0.11       1.51       0.86      14.53      15.39        0.01     0.01   0.871
  sub_90461                 17.67       0.00       0.12       0.54       7.90       5.22      13.12        0.01     0.00   0.742
  sub_90462                 17.67       0.00       0.12       0.77       6.28       7.36      13.64        0.01     0.01   0.772
  sub_90463                 17.67       0.00       0.12       0.39       8.99       3.78      12.77        0.01     0.01   0.723
  sub_90464                 17.67       0.00       0.12       0.66       7.09       6.30      13.38        0.01     0.01   0.757
  sub_90465                 17.67       0.00       0.12       0.35       9.31       3.36      12.67        0.01     0.01   0.717
  sub_90466                 17.67       0.00       0.12       0.61       7.41       5.87      13.28        0.01     0.01   0.751
  sub_90467                 17.67       0.00       0.12       0.30       9.68       2.87      12.55        0.02     0.02   0.710
  sub_90468                 17.67       0.00       0.12       0.58       7.64       5.57      13.20        0.02     0.01   0.747
  sub_90469                 17.67       0.00       0.12       0.35       9.31       3.36      12.67        0.01     0.01   0.717
  sub_90470                 17.67       0.00       0.12       0.60       7.49       5.76      13.25        0.01     0.01   0.750
  sub_90471                 17.67       0.00       0.12       0.50       8.24       4.77      13.01        0.01     0.01   0.736
  sub_90477                 17.67       0.00       0.12       0.34       9.38       3.26      12.64        0.02     0.02   0.716
  sub_90478                 17.67       0.00       0.12       0.39       8.99       3.78      12.77        0.01     0.01   0.723
  sub_90479                 17.67       0.00       0.12       0.93       5.06       8.98      14.04        0.01     0.01   0.794
  sub_90480                 17.67       0.00       0.12       0.46       8.51       4.42      12.93        0.02     0.01   0.731
  sub_90481                 17.67       0.00       0.12       0.58       7.61       5.61      13.21        0.01     0.01   0.748
  sub_90482                 17.67       0.00       0.12       0.61       7.43       5.84      13.27        0.01     0.01   0.751
  sub_90483                 17.67       0.00       0.11       1.22       2.96      11.75      14.71        0.02     0.01   0.832
  sub_90484                 17.67       0.00       0.12       0.51       8.15       4.89      13.04        0.01     0.01   0.738
  sub_90485                 17.67       0.00       0.12       0.92       5.17       8.82      14.00        0.02     0.01   0.792
  sub_90486                 17.67       0.00       0.12       0.68       6.90       6.55      13.44        0.02     0.01   0.761
  sub_90487                 17.67       0.00       0.12       0.58       7.61       5.61      13.21        0.03     0.02   0.748
  sub_90488                 17.67       0.00       0.12       0.71       6.67       6.84      13.52        0.02     0.01   0.765
  sub_90489                 17.67       0.00       0.12       0.36       9.23       3.46      12.69        0.01     0.01   0.718
  sub_90490                 17.67       0.00       0.12       0.32       9.51       3.10      12.60        0.01     0.01   0.713
  sub_90491                 17.67       0.00       0.12       0.38       9.09       3.65      12.74        0.01     0.01   0.721
  sub_90492                 17.67       0.00       0.12       0.51       8.13       4.91      13.05        0.02     0.01   0.738
  sub_90493                 17.67       0.00       0.12       0.35       9.32       3.34      12.66        0.01     0.01   0.717
  sub_90494                 17.67       0.00       0.12       0.33       9.43       3.20      12.63        0.01     0.01   0.715
  sub_90495                 17.67       0.00       0.12       0.52       8.06       5.01      13.07        0.01     0.01   0.740
  sub_90496                 17.67       0.00       0.12       0.35       9.32       3.34      12.66        0.01     0.01   0.717
  sub_90497                 17.67       0.00       0.12       0.31       9.58       3.00      12.58        0.01     0.01   0.712
  sub_90498                 17.67       0.00       0.12       0.59       7.58       5.64      13.22        0.02     0.02   0.748
  sub_90499                 17.67       0.00       0.11       1.02       4.41       9.83      14.24        0.02     0.01   0.806
  sub_90500                 17.67       0.00       0.12       0.75       6.40       7.21      13.60        0.02     0.01   0.770
  sub_90501                 17.67       0.00       0.12       0.33       9.46       3.16      12.62        0.01     0.01   0.714
  sub_90502                 17.67       0.00       0.12       0.65       7.16       6.20      13.36        0.01     0.01   0.756
  sub_90503                 17.67       0.00       0.12       0.36       9.22       3.48      12.70        0.01     0.01   0.719
  sub_90504                 17.67       0.00       0.12       0.34       9.40       3.23      12.64        0.01     0.01   0.715
  sub_90505                 17.67       0.00       0.12       0.39       8.98       3.79      12.77        0.01     0.01   0.723
  sub_90506                 17.67       0.00       0.12       0.43       8.72       4.14      12.86        0.01     0.01   0.728
  sub_90507                 17.67       0.00       0.12       0.45       8.57       4.33      12.90        0.01     0.01   0.730
  sub_90508                 17.67       0.00       0.12       0.44       8.67       4.20      12.87        0.01     0.01   0.728
  sub_90509                 17.67       0.00       0.12       0.90       5.28       8.68      13.96        0.01     0.01   0.790
  sub_90510                 17.67       0.00       0.12       0.41       8.89       3.92      12.80        0.01     0.01   0.725
  sub_90511                 17.67       0.00       0.12       0.70       6.77       6.71      13.48        0.01     0.01   0.763
  sub_90512                 17.67       0.00       0.12       0.46       8.48       4.45      12.93        0.01     0.01   0.732
  sub_90513                 17.67       0.00       0.12       0.32       9.54       3.05      12.59        0.02     0.02   0.713
  sub_90514                 17.67       0.00       0.12       0.42       8.79       4.05      12.84        0.01     0.01   0.726
  sub_90515                 17.67       0.00       0.12       0.74       6.47       7.11      13.58        0.01     0.01   0.768
  sub_90516                 17.67       0.00       0.11       1.03       4.34       9.93      14.27        0.01     0.01   0.807
  sub_90517                 17.67       0.00       0.12       0.75       6.42       7.18      13.60        0.01     0.01   0.769
  sub_90518                 17.67       0.00       0.12       0.22      10.22       2.15      12.37        0.01     0.01   0.700
  sub_90519                 17.67       0.00       0.12       0.83       5.81       7.98      13.79        0.03     0.02   0.780
  sub_90520                 17.67       0.00       0.12       0.81       5.97       7.77      13.74        0.02     0.01   0.778
  sub_90521                 17.67       0.00       0.12       0.48       8.39       4.58      12.96        0.01     0.01   0.734
  sub_90522                 17.67       0.00       0.12       0.38       9.08       3.67      12.74        0.01     0.00   0.721
  sub_90523                 17.67       0.00       0.12       0.47       8.41       4.55      12.96        0.02     0.01   0.733
  sub_90524                 17.67       0.00       0.12       0.80       6.07       7.64      13.71        0.02     0.02   0.776
  sub_90525                 17.67       0.00       0.11       1.00       4.57       9.63      14.19        0.03     0.03   0.803
  sub_90526                 17.67       0.00       0.12       0.80       6.00       7.73      13.73        0.01     0.01   0.777
  sub_90527                 17.67       0.00       0.11       1.04       4.30       9.98      14.28        0.01     0.01   0.808
  sub_90549                 17.67       0.00       0.12       0.75       6.37       7.25      13.61        0.01     0.01   0.770
  sub_90550                 17.67       0.00       0.12       0.00      11.85       0.00      11.85        0.01     0.00   0.671
  sub_90551                 17.67       0.00       0.12       0.88       5.44       8.47      13.91        0.01     0.01   0.787
  sub_90552                 17.67       0.00       0.12       0.36       9.23       3.47      12.69        0.04     0.03   0.718
  sub_90553                 17.67       0.00       0.12       0.85       5.71       8.12      13.83        0.01     0.01   0.782
  sub_90554                 17.67       0.00       0.12       0.80       6.00       7.73      13.73        0.01     0.01   0.777
  sub_90555                 17.67       0.00       0.11       0.98       4.71       9.43      14.15        0.01     0.01   0.801
  sub_90556                 17.67       0.00       0.11       1.08       4.03      10.34      14.37        0.02     0.02   0.813
  sub_90557                 17.67       0.00       0.12       0.55       7.82       5.32      13.15        0.01     0.01   0.744
  sub_90558                 17.67       0.00       0.12       0.56       7.78       5.37      13.16        0.02     0.02   0.745
  sub_90559                 17.67       0.00       0.12       0.88       5.47       8.43      13.90        0.01     0.01   0.787
  sub_90560                 17.67       0.00       0.12       0.72       6.58       6.96      13.54        0.02     0.02   0.766
  sub_90561                 17.67       0.00       0.12       0.64       7.17       6.19      13.36        0.02     0.01   0.756
  sub_90562                 17.67       0.00       0.12       0.60       7.52       5.73      13.24        0.02     0.01   0.749
  sub_90563                 17.67       0.00       0.12       0.56       7.76       5.41      13.17        0.01     0.01   0.745
  sub_90564                 17.67       0.00       0.12       0.49       8.31       4.68      12.99        0.01     0.01   0.735
  sub_90565                 17.67       0.00       0.12       0.69       6.81       6.67      13.47        0.01     0.01   0.762
  sub_90566                 17.67       0.00       0.12       0.71       6.67       6.84      13.52        0.01     0.01   0.765
  sub_90567                 17.67       0.00       0.12       0.85       5.69       8.14      13.83        0.01     0.01   0.783
  sub_90568                 17.67       0.00       0.12       0.00      11.85       0.00      11.85        0.00     0.00   0.671
  sub_90569                 17.67       0.00       0.12       0.78       6.18       7.50      13.68        0.01     0.01   0.774
  sub_90570                 17.67       0.00       0.12       0.93       5.08       8.95      14.03        0.01     0.01   0.794
  sub_90571                 17.67       0.00       0.12       0.50       8.21       4.81      13.02        0.01     0.01   0.737
  sub_90572                 17.67       0.00       0.12       0.50       8.24       4.77      13.01        0.01     0.01   0.736
  sub_90573                 17.67       0.00       0.12       0.33       9.43       3.20      12.63        0.01     0.01   0.715
  sub_90574                 17.67       0.00       0.12       0.38       9.10       3.63      12.73        0.01     0.01   0.721
  sub_90575                 17.67       0.00       0.12       0.62       7.36       5.94      13.30        0.02     0.01   0.752
  sub_90576                 17.67       0.00       0.12       0.67       6.96       6.46      13.42        0.02     0.01   0.760
  sub_90577                 17.67       0.00       0.12       0.65       7.11       6.26      13.37        0.01     0.01   0.757
  sub_90578                 17.67       0.00       0.12       0.57       7.72       5.46      13.18        0.02     0.01   0.746
  sub_90579                 17.67       0.00       0.12       0.48       8.39       4.57      12.96        0.01     0.01   0.734
  sub_90580                 17.67       0.00       0.11       0.99       4.66       9.50      14.16        0.01     0.01   0.801
  sub_90581                 17.67       0.00       0.12       0.80       6.06       7.66      13.71        0.01     0.01   0.776
  sub_90582                 17.67       0.00       0.12       0.63       7.30       6.01      13.31        0.01     0.01   0.753
  sub_90583                 17.67       0.00       0.12       0.78       6.17       7.51      13.68        0.01     0.01   0.774
  sub_90584                 17.67       0.00       0.12       0.44       8.66       4.21      12.88        0.01     0.01   0.729
  sub_90585                 17.67       0.00       0.12       0.44       8.68       4.20      12.87        0.01     0.01   0.728
  sub_90586                 17.67       0.00       0.12       0.48       8.36       4.62      12.97        0.01     0.01   0.734
  sub_90587                 17.67       0.00       0.12       0.53       8.00       5.09      13.09        0.01     0.01   0.741
  sub_90588                 17.67       0.00       0.12       0.36       9.20       3.50      12.70        0.01     0.01   0.719
  sub_90589                 17.67       0.00       0.12       0.60       7.52       5.73      13.24        0.01     0.01   0.749
  sub_90590                 17.67       0.00       0.12       0.57       7.68       5.51      13.19        0.02     0.01   0.747
  sub_90591                 17.67       0.00       0.12       0.39       9.01       3.75      12.76        0.01     0.01   0.722
  sub_90592                 17.67       0.00       0.12       0.38       9.10       3.64      12.74        0.01     0.01   0.721
  sub_90593                 17.67       0.00       0.12       0.51       8.12       4.93      13.05        0.01     0.01   0.738
  sub_90594                 17.67       0.00       0.12       0.63       7.25       6.08      13.33        0.02     0.01   0.754
  sub_90595                 17.67       0.00       0.12       0.64       7.21       6.14      13.34        0.01     0.01   0.755
  sub_90596                 17.67       0.00       0.12       0.36       9.22       3.48      12.70        0.01     0.01   0.719
  sub_90597                 17.67       0.00       0.12       0.85       5.67       8.16      13.84        0.01     0.01   0.783
  sub_90598                 17.67       0.00       0.12       0.84       5.72       8.10      13.82        0.01     0.01   0.782
  sub_90599                 17.67       0.00       0.12       0.62       7.35       5.95      13.30        0.01     0.01   0.753
  sub_90600                 17.67       0.00       0.12       0.56       7.76       5.41      13.17        0.01     0.01   0.745
  sub_90601                 17.67       0.00       0.12       0.94       5.02       9.03      14.05        0.01     0.01   0.795
  sub_90602                 17.67       0.00       0.12       0.70       6.77       6.71      13.48        0.01     0.01   0.763
  sub_90603                 17.67       0.00       0.12       0.89       5.40       8.52      13.92        0.01     0.01   0.788
  sub_90604                 17.67       0.00       0.12       0.59       7.54       5.70      13.24        0.01     0.01   0.749
  sub_90605                 17.67       0.00       0.12       0.58       7.61       5.61      13.21        0.02     0.02   0.748
  sub_90606                 17.67       0.00       0.12       0.66       7.08       6.30      13.38        0.01     0.01   0.757
  sub_90607                 17.67       0.00       0.12       0.68       6.90       6.55      13.44        0.01     0.01   0.761
  sub_90608                 17.67       0.00       0.12       0.81       5.93       7.83      13.76        0.01     0.01   0.778
  sub_90609                 17.67       0.00       0.11       0.96       4.89       9.20      14.09        0.01     0.01   0.797
  sub_90610                 17.67       0.00       0.12       0.93       5.10       8.92      14.02        0.01     0.01   0.793
  sub_90611                 17.67       0.00       0.12       0.83       5.82       7.97      13.79        0.01     0.01   0.780
  sub_90612                 17.67       0.00       0.12       0.94       5.04       9.01      14.04        0.01     0.01   0.795
  sub_90613                 17.67       0.00       0.11       1.00       4.59       9.60      14.19        0.02     0.01   0.803
  sub_90615                 17.67       0.00       0.12       0.85       5.67       8.17      13.84        0.02     0.02   0.783
  sub_90616                 17.67       0.00       0.12       0.44       8.69       4.18      12.87        0.02     0.02   0.728
  sub_90617                 17.67       0.00       0.12       0.56       7.75       5.42      13.17        0.02     0.01   0.745
  sub_90618                 17.67       0.00       0.12       0.36       9.21       3.49      12.70        0.03     0.02   0.719
  sub_90619                 17.67       0.00       0.12       0.06      11.43       0.56      11.99        0.01     0.01   0.678
  sub_90620                 17.67       0.00       0.12       0.38       9.07       3.67      12.74        0.01     0.01   0.721
  sub_90621                 17.67       0.00       0.12       0.81       5.98       7.76      13.74        0.03     0.02   0.777
  sub_90623                 17.67       0.00       0.12       0.69       6.83       6.64      13.47        0.02     0.02   0.762
  sub_90624                 17.67       0.00       0.12       0.67       7.00       6.41      13.41        0.01     0.00   0.759
  sub_90625                 17.67       0.00       0.12       0.57       7.72       5.46      13.18        0.01     0.01   0.746
  sub_90626                 17.67       0.00       0.12       0.51       8.17       4.87      13.04        0.01     0.01   0.738
  sub_90627                 17.67       0.00       0.12       0.90       5.32       8.63      13.95        0.02     0.01   0.789
  sub_90628                 17.67       0.00       0.12       0.74       6.50       7.07      13.57        0.03     0.02   0.768
  sub_90629                 17.67       0.00       0.12       0.85       5.64       8.21      13.85        0.02     0.02   0.784
  sub_90630                 17.67       0.00       0.12       0.36       9.23       3.46      12.69        0.01     0.01   0.718
  sub_90631                 17.67       0.00       0.12       0.56       7.75       5.41      13.17        0.01     0.01   0.745
  sub_90632                 17.67       0.00       0.12       0.58       7.61       5.61      13.21        0.01     0.01   0.748
  sub_90633                 17.67       0.00       0.12       0.36       9.25       3.44      12.69        0.01     0.01   0.718
  sub_90634                 17.67       0.00       0.12       0.54       7.90       5.22      13.12        0.01     0.01   0.742
  sub_90635                 17.67       0.00       0.12       0.80       6.07       7.64      13.71        0.01     0.01   0.776
  sub_90636                 17.67       0.00       0.12       0.60       7.47       5.79      13.26        0.01     0.01   0.750
  sub_90637                 17.67       0.00       0.12       0.56       7.79       5.37      13.16        0.01     0.01   0.744
  sub_90638                 17.67       0.00       0.12       0.33       9.48       3.13      12.61        0.02     0.02   0.714
  sub_90639                 17.67       0.00       0.12       0.85       5.66       8.18      13.84        0.02     0.01   0.783
  sub_90640                 17.67       0.00       0.12       0.43       8.74       4.11      12.85        0.02     0.01   0.727
  sub_90641                 17.67       0.00       0.12       0.53       8.02       5.06      13.08        0.02     0.01   0.740
  sub_90642                 17.67       0.00       0.12       0.66       7.02       6.38      13.40        0.01     0.01   0.758
  sub_90643                 17.67       0.00       0.12       0.43       8.76       4.09      12.85        0.02     0.02   0.727
  sub_90644                 17.67       0.00       0.12       0.37       9.17       3.54      12.71        0.01     0.01   0.719
  sub_90645                 17.67       0.00       0.12       0.52       8.06       5.01      13.07        0.01     0.01   0.740
  sub_90646                 17.67       0.00       0.11       0.98       4.74       9.40      14.14        0.01     0.01   0.800
  sub_90647                 17.67       0.00       0.11       1.35       2.07      12.92      15.00        0.02     0.01   0.849
  sub_90648                 17.67       0.00       0.12       0.35       9.27       3.40      12.68        0.01     0.01   0.717
  sub_90649                 17.67       0.00       0.12       0.52       8.05       5.02      13.07        0.01     0.01   0.740
  sub_90650                 17.67       0.00       0.12       0.51       8.11       4.94      13.05        0.03     0.02   0.739
  sub_90651                 17.67       0.00       0.12       0.42       8.77       4.07      12.84        0.01     0.01   0.727
  sub_90652                 17.67       0.00       0.12       0.54       7.95       5.15      13.10        0.01     0.01   0.741
  sub_90653                 17.67       0.00       0.12       0.65       7.11       6.26      13.37        0.01     0.01   0.757
  sub_90654                 17.67       0.00       0.12       0.75       6.42       7.18      13.60        0.00     0.00   0.769
  sub_90655                 17.67       0.00       0.12       0.48       8.33       4.65      12.98        0.01     0.01   0.735
  sub_90656                 17.67       0.00       0.12       0.86       5.60       8.27      13.86        0.01     0.01   0.784
  sub_90657                 17.67       0.00       0.12       0.90       5.28       8.69      13.96        0.02     0.01   0.790
  sub_90658                 17.67       0.00       0.12       0.52       8.10       4.96      13.06        0.02     0.01   0.739
  sub_90659                 17.67       0.00       0.11       1.18       3.27      11.34      14.61        0.01     0.01   0.827
  sub_90662                 17.67       0.00       0.12       0.60       7.46       5.80      13.26        0.00     0.00   0.750
  sub_90663                 17.67       0.00       0.12       0.82       5.86       7.92      13.78        0.04     0.03   0.780
  sub_90664                 17.67       0.00       0.11       1.63       0.00      15.66      15.66        0.00     0.00   0.886
  sub_90665                 17.67       0.00       0.12       0.76       6.31       7.32      13.63        0.01     0.01   0.771
  sub_90669                 17.67       0.00       0.12       0.62       7.37       5.93      13.29        0.00     0.00   0.752
  sub_90670                 17.67       0.00       0.12       0.45       8.57       4.34      12.91        0.01     0.01   0.730
  sub_90671                 17.67       0.00       0.12       0.50       8.24       4.77      13.01        0.00     0.00   0.736
  sub_90672                 17.67       0.00       0.12       0.66       7.06       6.33      13.39        0.01     0.01   0.758
  sub_90673                 17.67       0.00       0.12       0.84       5.74       8.07      13.81        0.01     0.01   0.782
  sub_90674                 17.67       0.00       0.12       0.24      10.08       2.34      12.42        0.02     0.01   0.703
  sub_90675                 17.67       0.00       0.12       0.37       9.15       3.56      12.72        0.02     0.02   0.720
  sub_90676                 17.67       0.00       0.12       0.55       7.87       5.26      13.13        0.02     0.01   0.743
  sub_90677                 17.67       0.00       0.12       0.80       6.03       7.69      13.72        0.01     0.01   0.777
  sub_90678                 17.67       0.00       0.12       0.72       6.64       6.89      13.53        0.01     0.01   0.765
  sub_90679                 17.67       0.00       0.12       0.79       6.12       7.58      13.69        0.02     0.02   0.775
  sub_90680                 17.67       0.00       0.12       0.45       8.56       4.35      12.91        0.02     0.02   0.731
  sub_90681                 17.67       0.00       0.12       0.80       6.02       7.70      13.72        0.01     0.01   0.777
  sub_90682                 17.67       0.00       0.12       0.72       6.61       6.92      13.54        0.01     0.01   0.766
  sub_90683                 17.67       0.00       0.11       1.19       3.20      11.44      14.63        0.01     0.01   0.828
  sub_90684                 17.67       0.00       0.12       0.27       9.92       2.55      12.47        0.01     0.00   0.706
  sub_90685                 17.67       0.00       0.12       0.19      10.44       1.86      12.30        0.01     0.00   0.696
  sub_90686                 17.67       0.00       0.12       0.72       6.64       6.89      13.53        0.01     0.01   0.765
  sub_90688                 17.67       0.00       0.12       0.54       7.90       5.22      13.12        0.01     0.01   0.742
  sub_90689                 17.67       0.00       0.12       0.87       5.53       8.35      13.88        0.01     0.00   0.786
  sub_90690                 17.67       0.00       0.12       0.68       6.89       6.55      13.44        0.01     0.01   0.761
  sub_90691                 17.67       0.00       0.12       0.59       7.59       5.63      13.22        0.01     0.01   0.748
  sub_90692                 17.67       0.00       0.12       0.51       8.16       4.87      13.04        0.01     0.00   0.738
  sub_90693                 17.67       0.00       0.11       0.96       4.88       9.21      14.09        0.00     0.00   0.797
  sub_90694                 17.67       0.00       0.11       1.31       2.29      12.63      14.92        0.00     0.00   0.845
  sub_90695                 17.67       0.00       0.12       0.73       6.52       7.05      13.57        0.01     0.00   0.768
  sub_90696                 17.67       0.00       0.12       0.81       5.93       7.83      13.76        0.01     0.00   0.778
  sub_90697                 17.67       0.00       0.12       0.84       5.76       8.05      13.81        0.00     0.00   0.782
  sub_90698                 17.67       0.00       0.12       0.95       4.97       9.09      14.06        0.00     0.00   0.796
  sub_90699                 17.67       0.00       0.11       1.12       3.68      10.80      14.48        0.00     0.00   0.819
  sub_90700                 17.67       0.00       0.12       0.31       9.59       2.98      12.58        0.00     0.00   0.712
  sub_90701                 17.67       0.00       0.12       0.29       9.76       2.76      12.52        0.00     0.00   0.709
  sub_90702                 17.67       0.00       0.12       0.33       9.48       3.13      12.61        0.00     0.00   0.714
  sub_90703                 17.67       0.00       0.12       0.84       5.77       8.04      13.81        0.01     0.01   0.781
  sub_90704                 17.67       0.00       0.12       0.81       5.99       7.74      13.73        0.01     0.01   0.777
  sub_90705                 17.67       0.00       0.12       0.87       5.52       8.37      13.89        0.02     0.01   0.786
  sub_90706                 17.67       0.00       0.12       0.60       7.52       5.73      13.24        0.01     0.00   0.749
  sub_90707                 17.67       0.00       0.12       0.40       8.96       3.82      12.78        0.01     0.00   0.723
  sub_90708                 17.67       0.00       0.11       0.97       4.81       9.31      14.11        0.02     0.01   0.799
  sub_90709                 17.67       0.00       0.12       0.72       6.64       6.89      13.53        0.01     0.01   0.765
  sub_90710                 17.67       0.00       0.12       0.94       5.05       8.99      14.04        0.02     0.02   0.794
  sub_90724                 17.67       0.00       0.11       0.98       4.74       9.40      14.14        0.01     0.01   0.800
  sub_90725                 17.67       0.00       0.11       1.63       0.00      15.66      15.66        0.00     0.00   0.886
  sub_90726                 17.67       0.00       0.11       1.63       0.00      15.66      15.66        0.00     0.00   0.886
  sub_90727                 17.67       0.00       0.11       1.63       0.00      15.66      15.66        0.00     0.00   0.886
  sub_90728                 17.67       0.00       0.11       1.63       0.00      15.66      15.66        0.01     0.01   0.886
  sub_90729                 17.67       0.00       0.11       1.63       0.00      15.66      15.66        0.00     0.00   0.886
  sub_90730                 17.67       0.00       0.11       1.63       0.00      15.66      15.66        0.01     0.01   0.886
  sub_90731                 17.67       0.00       0.11       1.63       0.00      15.66      15.66        0.01     0.01   0.886
  sub_90732                 17.67       0.00       0.11       1.63       0.00      15.66      15.66        0.00     0.00   0.886
  sub_90733                 17.67       0.00       0.12       0.48       8.37       4.61      12.97        0.01     0.01   0.734
  
  
  ******************
  Node Depth Summary
  ******************
  
  ---------------------------------------------------------------------------------
                                 Average  Maximum  Maximum  Time of Max    Reported
                                   Depth    Depth      HGL   Occurrence   Max Depth
  Node                 Type       Meters   Meters   Meters  days hr:min      Meters
  ---------------------------------------------------------------------------------
  j_9006F              JUNCTION     0.09     0.42     0.06     0  02:14        0.41
  j_90334              JUNCTION     0.04     0.21    -0.00     0  02:10        0.21
  j_90335              JUNCTION     0.07     0.39    -0.02     0  02:10        0.39
  j_90336              JUNCTION     0.06     0.25     0.08     0  02:05        0.25
  j_90363              JUNCTION     0.09     0.35    -0.00     0  02:10        0.35
  j_90364              JUNCTION     0.09     0.35    -0.00     0  02:10        0.34
  j_90365              JUNCTION     0.09     0.35    -0.00     0  02:10        0.34
  j_90366              JUNCTION     0.05     0.30    -0.01     0  02:10        0.29
  j_90367              JUNCTION     0.10     0.48    -0.01     0  02:10        0.47
  j_90368              JUNCTION     0.03     0.28    -0.01     0  02:10        0.27
  j_90369              JUNCTION     0.04     0.28    -0.02     0  02:09        0.28
  j_90370              JUNCTION     0.11     0.49    -0.02     0  02:10        0.49
  j_90371              JUNCTION     0.13     0.52    -0.04     0  02:10        0.51
  j_90372              JUNCTION     0.03     0.21    -0.04     0  02:10        0.20
  j_90373              JUNCTION     0.09     0.43    -0.04     0  02:10        0.43
  j_90374              JUNCTION     0.03     0.25    -0.03     0  02:11        0.23
  j_90375              JUNCTION     0.05     0.30    -0.04     0  02:10        0.29
  j_90376              JUNCTION     0.02     0.10    -0.05     0  02:11        0.09
  j_90377              JUNCTION     0.02     0.12    -0.05     0  02:11        0.11
  j_90378              JUNCTION     0.05     0.22    -0.18     0  02:10        0.21
  j_90379              JUNCTION     0.03     0.12    -0.13     0  02:05        0.12
  j_90380              JUNCTION     0.03     0.18    -0.15     0  02:10        0.18
  j_90381              JUNCTION     0.07     0.30    -0.15     0  02:10        0.30
  j_90382              JUNCTION     0.19     0.76    -0.16     0  02:10        0.76
  j_90383              JUNCTION     0.17     0.69    -0.13     0  02:10        0.69
  j_90384              JUNCTION     0.09     0.33    -0.13     0  02:10        0.33
  j_90385              JUNCTION     0.04     0.24    -0.13     0  02:10        0.24
  j_90386              JUNCTION     0.03     0.13    -0.10     0  02:05        0.13
  j_90387              JUNCTION     0.02     0.15    -0.05     0  02:10        0.15
  j_90388              JUNCTION     0.08     0.34    -0.05     0  02:10        0.34
  j_90389              JUNCTION     0.13     0.55    -0.06     0  02:10        0.54
  j_90390              JUNCTION     0.12     0.52    -0.05     0  02:10        0.51
  j_90391              JUNCTION     0.08     0.27     0.03     0  02:05        0.27
  j_90392              JUNCTION     0.09     0.30     0.05     0  02:05        0.30
  j_90393              JUNCTION     0.06     0.26     0.07     0  02:05        0.26
  j_90394              JUNCTION     0.04     0.19     0.09     0  02:05        0.19
  j_90395              JUNCTION     0.03     0.18     0.10     0  02:05        0.17
  j_90396              JUNCTION     0.02     0.12     0.10     0  02:05        0.12
  j_90397              JUNCTION     0.17     0.66    -0.11     0  02:10        0.65
  j_90398              JUNCTION     0.10     0.51    -0.11     0  02:10        0.51
  j_90399              JUNCTION     0.03     0.20    -0.11     0  02:10        0.19
  j_90400              JUNCTION     0.02     0.14    -0.12     0  02:11        0.13
  j_90401              JUNCTION     0.03     0.13    -0.18     0  02:10        0.13
  j_90402              JUNCTION     0.03     0.20    -0.16     0  02:12        0.19
  j_90403              JUNCTION     0.02     0.13    -0.12     0  02:11        0.12
  j_90404              JUNCTION     0.03     0.19    -0.11     0  02:10        0.18
  j_90405              JUNCTION     0.09     0.45    -0.11     0  02:11        0.45
  j_90406              JUNCTION     0.07     0.39    -0.11     0  02:11        0.39
  j_90407              JUNCTION     0.05     0.30    -0.11     0  02:10        0.30
  j_90408              JUNCTION     0.04     0.21    -0.11     0  02:10        0.21
  j_90427              JUNCTION     0.12     0.52     0.09     0  02:09        0.52
  j_90428              JUNCTION     0.09     0.45     0.08     0  02:10        0.45
  j_90430              JUNCTION     0.05     0.19    -1.38     0  02:11        0.19
  j_90433              JUNCTION     0.05     0.22    -0.15     0  02:12        0.21
  j_90434              JUNCTION     0.09     0.28    -0.15     0  02:12        0.27
  j_90435              JUNCTION     0.04     0.17    -0.20     0  02:10        0.17
  j_90436              JUNCTION     0.06     0.27    -0.19     0  02:05        0.27
  j_90437              JUNCTION     0.22     0.77    -0.59     0  02:11        0.76
  j_90438              JUNCTION     0.26     0.88    -0.47     0  02:10        0.87
  j_90439              JUNCTION     0.03     0.17    -0.04     0  02:10        0.16
  j_90440              JUNCTION     0.04     0.23     0.07     0  02:10        0.22
  j_90441              JUNCTION     0.02     0.09    -0.04     0  02:10        0.08
  j_90442              JUNCTION     0.18     0.59    -0.05     0  02:10        0.59
  j_90443              JUNCTION     0.27     0.91    -0.39     0  02:10        0.91
  j_90444              JUNCTION     0.20     0.81    -0.30     0  02:10        0.81
  j_90445              JUNCTION     0.04     0.19    -0.24     0  02:05        0.19
  j_90446              JUNCTION     0.03     0.16    -0.20     0  02:05        0.16
  j_90447              JUNCTION     0.03     0.14    -0.11     0  02:05        0.14
  j_90448              JUNCTION     0.03     0.12    -0.15     0  02:05        0.12
  j_90449              JUNCTION     0.05     0.24    -0.24     0  02:10        0.23
  j_90450              JUNCTION     0.04     0.23    -0.24     0  02:10        0.22
  j_90451              JUNCTION     0.19     0.78    -0.24     0  02:10        0.77
  j_90452              JUNCTION     0.04     0.23    -0.19     0  02:10        0.23
  j_90453              JUNCTION     0.19     0.77    -0.19     0  02:10        0.77
  j_90454              JUNCTION     0.05     0.21    -0.26     0  02:10        0.21
  j_90455              JUNCTION     0.06     0.26    -0.28     0  02:10        0.26
  j_90456              JUNCTION     0.09     0.36    -0.30     0  02:10        0.36
  j_90457              JUNCTION     0.11     0.44    -0.32     0  02:10        0.44
  j_90459              JUNCTION     0.17     0.70    -0.35     0  02:10        0.69
  j_90460              JUNCTION     0.13     0.64    -0.32     0  02:10        0.63
  j_90461              JUNCTION     0.20     0.76    -0.32     0  02:10        0.75
  j_90462              JUNCTION     0.17     0.71    -0.27     0  02:10        0.70
  j_90463              JUNCTION     0.11     0.53    -0.20     0  02:11        0.52
  j_90464              JUNCTION     0.08     0.44    -0.19     0  02:11        0.43
  j_90465              JUNCTION     0.06     0.36    -0.18     0  02:12        0.34
  j_90466              JUNCTION     0.05     0.27    -0.17     0  02:12        0.25
  j_90467              JUNCTION     0.06     0.31    -0.11     0  02:10        0.30
  j_90468              JUNCTION     0.09     0.41    -0.11     0  02:10        0.39
  j_90469              JUNCTION     0.08     0.44    -0.12     0  02:10        0.42
  j_90470              JUNCTION     0.11     0.53    -0.14     0  02:10        0.52
  j_90471              JUNCTION     0.11     0.55    -0.15     0  02:10        0.54
  j_90477              JUNCTION     0.07     0.43     0.12     0  02:10        0.41
  j_90478              JUNCTION     0.11     0.51     0.10     0  02:10        0.51
  j_90479              JUNCTION     0.07     0.42     0.10     0  02:10        0.42
  j_90480              JUNCTION     0.06     0.36     0.11     0  02:10        0.35
  j_90481              JUNCTION     0.11     0.51     0.11     0  02:10        0.50
  j_90482              JUNCTION     0.13     0.55     0.10     0  02:10        0.54
  j_90483              JUNCTION     0.07     0.39     0.11     0  02:10        0.38
  j_90484              JUNCTION     0.05     0.30     0.10     0  02:10        0.30
  j_90485              JUNCTION     0.08     0.42     0.09     0  02:10        0.42
  j_90486              JUNCTION     0.14     0.55     0.09     0  02:10        0.55
  j_90487              JUNCTION     0.14     0.59     0.07     0  02:09        0.59
  j_90488              JUNCTION     0.17     0.62     0.02     0  02:10        0.62
  j_90489              JUNCTION     0.05     0.27     0.04     0  02:10        0.26
  j_90490              JUNCTION     0.07     0.37     0.06     0  02:10        0.36
  j_90491              JUNCTION     0.16     0.63     0.09     0  02:10        0.62
  j_90492              JUNCTION     0.19     0.68     0.06     0  02:10        0.68
  j_90493              JUNCTION     0.07     0.38     0.06     0  02:10        0.37
  j_90494              JUNCTION     0.23     0.79     0.05     0  02:10        0.79
  j_90495              JUNCTION     0.23     0.77     0.06     0  02:10        0.77
  j_90496              JUNCTION     0.08     0.38     0.06     0  02:10        0.37
  j_90497              JUNCTION     0.03     0.22     0.04     0  02:10        0.21
  j_90498              JUNCTION     0.12     0.51     0.03     0  02:10        0.51
  j_90499              JUNCTION     0.13     0.51     0.04     0  02:10        0.51
  j_90500              JUNCTION     0.09     0.43     0.05     0  02:10        0.42
  j_90501              JUNCTION     0.07     0.34     0.07     0  02:11        0.33
  j_90502              JUNCTION     0.05     0.30     0.07     0  02:11        0.29
  j_90503              JUNCTION     0.05     0.30     0.07     0  02:10        0.29
  j_90504              JUNCTION     0.08     0.35     0.07     0  02:10        0.34
  j_90505              JUNCTION     0.14     0.57     0.07     0  02:10        0.57
  j_90506              JUNCTION     0.15     0.59     0.08     0  02:10        0.58
  j_90507              JUNCTION     0.09     0.45     0.08     0  02:10        0.44
  j_90508              JUNCTION     0.12     0.53     0.08     0  02:10        0.52
  j_90509              JUNCTION     0.06     0.33     0.08     0  02:10        0.32
  j_90510              JUNCTION     0.08     0.40     0.09     0  02:10        0.40
  j_90511              JUNCTION     0.20     0.69     0.10     0  02:09        0.69
  j_90512              JUNCTION     0.17     0.64     0.10     0  02:09        0.63
  j_90513              JUNCTION     0.06     0.32     0.06     0  02:10        0.31
  j_90514              JUNCTION     0.07     0.36     0.04     0  02:11        0.35
  j_90515              JUNCTION     0.10     0.41    -0.00     0  02:10        0.40
  j_90516              JUNCTION     0.10     0.33    -0.11     0  02:10        0.33
  j_90517              JUNCTION     0.17     0.70    -0.22     0  02:10        0.69
  j_90518              JUNCTION     0.17     0.70    -0.18     0  02:10        0.69
  j_90519              JUNCTION     0.15     0.67    -0.16     0  02:10        0.66
  j_90520              JUNCTION     0.07     0.27    -0.08     0  02:05        0.27
  j_90521              JUNCTION     0.03     0.17    -0.07     0  02:05        0.17
  j_90522              JUNCTION     0.05     0.20    -0.07     0  02:05        0.20
  j_90523              JUNCTION     0.03     0.17    -0.03     0  02:05        0.17
  j_90524              JUNCTION     0.14     0.57     0.12     0  02:09        0.56
  j_90525              JUNCTION     0.11     0.47     0.12     0  02:09        0.46
  j_90526              JUNCTION     0.08     0.38     0.12     0  02:10        0.37
  j_90527              JUNCTION     0.06     0.30     0.12     0  02:10        0.29
  j_90549              JUNCTION     0.05     0.21    -0.20     0  02:05        0.21
  j_90550              JUNCTION     0.30     0.82    -0.41     0  02:11        0.82
  j_90551              JUNCTION     0.02     0.07     0.12     0  02:01        0.07
  j_90553              JUNCTION     0.11     0.52     0.14     0  02:09        0.52
  j_90554              JUNCTION     0.09     0.48     0.14     0  02:09        0.48
  j_90555              JUNCTION     0.06     0.39     0.15     0  02:10        0.39
  j_90556              JUNCTION     0.11     0.52     0.15     0  02:09        0.51
  j_90557              JUNCTION     0.11     0.53     0.15     0  02:09        0.52
  j_90558              JUNCTION     0.22     0.82     0.11     0  02:09        0.81
  j_90559              JUNCTION     0.16     0.70     0.12     0  02:09        0.69
  j_90560              JUNCTION     0.16     0.67     0.11     0  02:10        0.67
  j_90561              JUNCTION     0.09     0.49     0.11     0  02:09        0.47
  j_90562              JUNCTION     0.13     0.55     0.10     0  02:09        0.54
  j_90563              JUNCTION     0.21     0.78     0.08     0  02:09        0.76
  j_90564              JUNCTION     0.26     0.87     0.06     0  02:09        0.86
  j_90565              JUNCTION     0.07     0.40     0.06     0  02:10        0.40
  j_90566              JUNCTION     0.04     0.27     0.07     0  02:10        0.25
  j_90567              JUNCTION     0.02     0.09     0.12     0  02:01        0.09
  j_90568              JUNCTION     0.29     0.86    -0.25     0  02:11        0.85
  j_90569              JUNCTION     0.09     0.39     0.07     0  02:10        0.37
  j_90570              JUNCTION     0.02     0.15     0.07     0  02:10        0.13
  j_90571              JUNCTION     0.10     0.50     0.07     0  02:10        0.48
  j_90572              JUNCTION     0.28     0.90     0.04     0  02:10        0.89
  j_90573              JUNCTION     0.07     0.39     0.05     0  02:10        0.38
  j_90574              JUNCTION     0.25     0.82     0.02     0  02:11        0.82
  j_90575              JUNCTION     0.31     0.91    -0.00     0  02:10        0.90
  j_90576              JUNCTION     0.28     0.86    -0.06     0  02:10        0.85
  j_90577              JUNCTION     0.29     0.87    -0.11     0  02:10        0.87
  j_90578              JUNCTION     0.27     0.84    -0.11     0  02:11        0.84
  j_90579              JUNCTION     0.23     0.78    -0.10     0  02:14        0.77
  j_90580              JUNCTION     0.03     0.18     0.05     0  02:10        0.17
  j_90581              JUNCTION     0.05     0.29     0.05     0  02:11        0.28
  j_90582              JUNCTION     0.05     0.29     0.05     0  02:10        0.27
  j_90583              JUNCTION     0.06     0.35     0.04     0  02:10        0.33
  j_90584              JUNCTION     0.08     0.40     0.05     0  02:11        0.39
  j_90585              JUNCTION     0.26     0.86     0.03     0  02:11        0.84
  j_90586              JUNCTION     0.27     0.87     0.05     0  02:11        0.86
  j_90587              JUNCTION     0.26     0.86     0.07     0  02:11        0.84
  j_90588              JUNCTION     0.08     0.43     0.07     0  02:10        0.43
  j_90589              JUNCTION     0.06     0.36     0.08     0  02:10        0.35
  j_90590              JUNCTION     0.06     0.33     0.08     0  02:10        0.32
  j_90591              JUNCTION     0.20     0.71     0.10     0  02:09        0.71
  j_90592              JUNCTION     0.22     0.77     0.10     0  02:10        0.76
  j_90593              JUNCTION     0.26     0.87     0.08     0  02:11        0.86
  j_90594              JUNCTION     0.22     0.79     0.09     0  02:11        0.77
  j_90595              JUNCTION     0.09     0.43     0.09     0  02:11        0.41
  j_90596              JUNCTION     0.08     0.41     0.09     0  02:11        0.39
  j_90597              JUNCTION     0.07     0.37     0.09     0  02:11        0.35
  j_90598              JUNCTION     0.06     0.34     0.09     0  02:11        0.33
  j_90599              JUNCTION     0.08     0.38     0.09     0  02:11        0.36
  j_90600              JUNCTION     0.06     0.32     0.10     0  02:10        0.29
  j_90601              JUNCTION     0.04     0.27     0.10     0  02:11        0.24
  j_90602              JUNCTION     0.08     0.39     0.12     0  02:12        0.37
  j_90603              JUNCTION     0.08     0.41     0.12     0  02:12        0.39
  j_90604              JUNCTION     0.10     0.48     0.12     0  02:12        0.45
  j_90605              JUNCTION     0.14     0.57     0.11     0  02:11        0.55
  j_90606              JUNCTION     0.14     0.55     0.12     0  02:11        0.53
  j_90607              JUNCTION     0.11     0.51     0.13     0  02:11        0.48
  j_90608              JUNCTION     0.10     0.47     0.13     0  02:11        0.44
  j_90609              JUNCTION     0.04     0.29     0.12     0  02:10        0.27
  j_90610              JUNCTION     0.06     0.35     0.13     0  02:11        0.32
  j_90611              JUNCTION     0.07     0.39     0.12     0  02:11        0.37
  j_90612              JUNCTION     0.06     0.33     0.12     0  02:11        0.31
  j_90613              JUNCTION     0.04     0.22     0.12     0  02:10        0.21
  j_90615              JUNCTION     0.03     0.14    -0.15     0  02:05        0.14
  j_90616              JUNCTION     0.04     0.19    -0.13     0  02:05        0.19
  j_90617              JUNCTION     0.02     0.12    -0.11     0  02:13        0.12
  j_90618              JUNCTION     0.06     0.26    -0.11     0  02:14        0.26
  j_90619              JUNCTION     0.30     0.88    -0.12     0  02:11        0.87
  j_90620              JUNCTION     0.33     0.94    -0.11     0  02:15        0.94
  j_90621              JUNCTION     0.29     0.89    -0.09     0  02:15        0.89
  j_90623              JUNCTION     0.26     0.84    -0.06     0  02:15        0.84
  j_90624              JUNCTION     0.20     0.73    -0.06     0  02:15        0.73
  j_90625              JUNCTION     0.17     0.67    -0.03     0  02:14        0.67
  j_90626              JUNCTION     0.22     0.78    -0.04     0  02:15        0.78
  j_90627              JUNCTION     0.26     0.84    -0.04     0  02:15        0.84
  j_90628              JUNCTION     0.08     0.38    -0.03     0  02:15        0.38
  j_90629              JUNCTION     0.06     0.33    -0.02     0  02:15        0.33
  j_90630              JUNCTION     0.04     0.15    -0.04     0  02:05        0.15
  j_90631              JUNCTION     0.09     0.41    -0.01     0  02:15        0.41
  j_90632              JUNCTION     0.10     0.44    -0.01     0  02:14        0.43
  j_90633              JUNCTION     0.10     0.46    -0.02     0  02:14        0.46
  j_90634              JUNCTION     0.28     0.86    -0.02     0  02:14        0.86
  j_90635              JUNCTION     0.18     0.68    -0.02     0  02:14        0.68
  j_90636              JUNCTION     0.14     0.68     0.11     0  02:09        0.55
  j_90637              JUNCTION     0.19     0.70    -0.01     0  02:14        0.70
  j_90638              JUNCTION     0.12     0.48     0.00     0  02:14        0.47
  j_90639              JUNCTION     0.09     0.40    -0.00     0  02:13        0.40
  j_90640              JUNCTION     0.05     0.29    -0.00     0  02:14        0.28
  j_90641              JUNCTION     0.22     0.74    -0.10     0  02:14        0.74
  j_90642              JUNCTION     0.17     0.63    -0.10     0  02:13        0.63
  j_90643              JUNCTION     0.16     0.62    -0.10     0  02:14        0.62
  j_90644              JUNCTION     0.03     0.13    -0.02     0  02:05        0.13
  j_90645              JUNCTION     0.01     0.06     0.13     0  02:05        0.06
  j_90646              JUNCTION     0.05     0.18     0.08     0  02:05        0.18
  j_90647              JUNCTION     0.02     0.09     0.12     0  02:05        0.09
  j_90648              JUNCTION     0.05     0.29     0.00     0  02:13        0.29
  j_90649              JUNCTION     0.05     0.22     0.01     0  02:14        0.22
  j_90650              JUNCTION     0.09     0.39     0.01     0  02:14        0.39
  j_90651              JUNCTION     0.09     0.43    -0.01     0  02:13        0.42
  j_90652              JUNCTION     0.09     0.41    -0.01     0  02:15        0.40
  j_90653              JUNCTION     0.04     0.23    -0.01     0  02:14        0.23
  j_90654              JUNCTION     0.17     0.63     0.03     0  02:15        0.63
  j_90655              JUNCTION     0.20     0.68     0.02     0  02:15        0.68
  j_90656              JUNCTION     0.20     0.69     0.00     0  02:15        0.69
  j_90657              JUNCTION     0.02     0.09     0.32     0  02:05        0.09
  j_90658              JUNCTION     0.03     0.13     0.26     0  02:05        0.13
  j_90659              JUNCTION     0.03     0.14     0.16     0  02:05        0.14
  j_90662              JUNCTION     0.03     0.15    -0.17     0  02:10        0.15
  j_90663              JUNCTION     0.11     0.55     0.12     0  02:09        0.54
  j_90664              JUNCTION     0.05     0.27     0.00     0  02:13        0.27
  j_90665              JUNCTION     0.28     0.86    -0.11     0  02:11        0.86
  j_90669              JUNCTION     0.12     0.40     0.17     0  02:10        0.40
  j_90670              JUNCTION     0.13     0.42     0.17     0  02:10        0.42
  j_90671              JUNCTION     0.14     0.43     0.17     0  02:10        0.43
  j_90672              JUNCTION     0.12     0.50     0.04     0  02:15        0.50
  j_90673              JUNCTION     0.16     0.57     0.04     0  02:15        0.57
  j_90674              JUNCTION     0.17     0.63     0.03     0  02:15        0.63
  j_90675              JUNCTION     0.11     0.37     0.15     0  02:10        0.37
  j_90676              JUNCTION     0.13     0.41     0.17     0  02:10        0.40
  j_90677              JUNCTION     0.16     0.46     0.17     0  02:10        0.46
  j_90678              JUNCTION     0.05     0.28     0.18     0  02:10        0.28
  j_90679              JUNCTION     0.04     0.20     0.18     0  02:10        0.20
  j_90680              JUNCTION     0.11     0.41     0.11     0  02:10        0.41
  j_90681              JUNCTION     0.13     0.45     0.07     0  02:14        0.45
  j_90682              JUNCTION     0.02     0.10     0.07     0  02:14        0.10
  j_90683              JUNCTION     0.13     0.50     0.05     0  02:14        0.50
  j_90684              JUNCTION     0.09     0.42     0.06     0  02:14        0.41
  j_90685              JUNCTION     0.02     0.07     0.18     0  02:05        0.07
  j_90686              JUNCTION     0.11     0.46     0.06     0  02:15        0.45
  j_90688              JUNCTION     0.02     0.08     0.53     0  02:05        0.08
  j_90689              JUNCTION     0.04     0.18    -0.12     0  02:05        0.18
  j_90690              JUNCTION     0.04     0.17    -0.08     0  02:05        0.17
  j_90691              JUNCTION     0.02     0.10     0.20     0  02:05        0.10
  j_90692              JUNCTION     0.01     0.06     0.26     0  02:05        0.06
  j_90693              JUNCTION     0.01     0.05     0.08     0  02:05        0.05
  j_90694              JUNCTION     0.02     0.08     0.14     0  02:05        0.08
  j_90695              JUNCTION     0.01     0.06     0.56     0  02:05        0.06
  j_90696              JUNCTION     0.02     0.10     0.10     0  02:05        0.10
  j_90697              JUNCTION     0.03     0.13     0.06     0  02:05        0.13
  j_90698              JUNCTION     0.03     0.15     0.03     0  02:05        0.15
  j_90699              JUNCTION     0.03     0.16    -0.02     0  02:05        0.16
  j_90700              JUNCTION     0.01     0.05     0.55     0  02:05        0.05
  j_90701              JUNCTION     0.01     0.04     0.54     0  02:05        0.04
  j_90702              JUNCTION     0.01     0.04     0.54     0  02:05        0.04
  j_90703              JUNCTION     0.14     0.58     0.10     0  02:10        0.57
  j_90704              JUNCTION     0.06     0.33     0.11     0  02:10        0.32
  j_90705              JUNCTION     0.06     0.37     0.11     0  02:09        0.35
  j_90706              JUNCTION     0.17     0.65     0.11     0  02:09        0.64
  j_90707              JUNCTION     0.11     0.49     0.11     0  02:09        0.49
  j_90708              JUNCTION     0.04     0.22     0.11     0  02:10        0.22
  j_90709              JUNCTION     0.06     0.35     0.15     0  02:09        0.32
  j_90710              JUNCTION     0.03     0.19     0.14     0  02:10        0.18
  j_90724              JUNCTION     0.14     0.43     0.17     0  02:10        0.43
  j_90725              JUNCTION     0.03     0.18     0.18     0  02:10        0.17
  j_90726              JUNCTION     0.02     0.13     0.18     0  02:10        0.12
  j_90727              JUNCTION     0.01     0.08     0.18     0  02:10        0.07
  j_90728              JUNCTION     0.02     0.12     0.18     0  02:08        0.11
  j_90729              JUNCTION     0.01     0.04     0.27     0  02:05        0.04
  j_90730              JUNCTION     0.05     0.25     0.17     0  02:10        0.25
  j_90731              JUNCTION     0.02     0.08     0.18     0  02:10        0.08
  j_90732              JUNCTION     0.01     0.03     0.18     0  02:10        0.03
  j_90733              JUNCTION     0.07     0.31     0.17     0  02:10        0.31
  j_91272              JUNCTION     0.00     0.00     0.17     0  00:00        0.00
  j_91273              JUNCTION     0.00     0.00     0.47     0  00:00        0.00
  j_91274              JUNCTION     0.00     0.00     0.23     0  00:00        0.00
  j_91275              JUNCTION     0.00     0.00     0.47     0  00:00        0.00
  j_91276              JUNCTION     0.00     0.00     0.28     0  00:00        0.00
  j_91277              JUNCTION     0.00     0.00     0.51     0  00:00        0.00
  j_91278              JUNCTION     0.00     0.00     0.35     0  00:00        0.00
  j_91279              JUNCTION     0.00     0.00     0.50     0  00:00        0.00
  j_91292              JUNCTION     0.00     0.00    -0.01     0  00:00        0.00
  j_91293              JUNCTION     0.02     0.20    -0.03     0  02:11        0.18
  j_91294              JUNCTION     0.00     0.00     0.31     0  00:00        0.00
  j_90552              OUTFALL      0.00     0.00    -1.29     0  00:00        0.00
  j_90431              OUTFALL      0.05     0.19    -1.42     0  02:11        0.19
  
  
  *******************
  Node Inflow Summary
  *******************
  
  -------------------------------------------------------------------------------------------------
                                  Maximum  Maximum                  Lateral       Total        Flow
                                  Lateral    Total  Time of Max      Inflow      Inflow     Balance
                                   Inflow   Inflow   Occurrence      Volume      Volume       Error
  Node                 Type           CMS      CMS  days hr:min    10^6 ltr    10^6 ltr     Percent
  -------------------------------------------------------------------------------------------------
  j_9006F              JUNCTION     0.004    0.007     0  02:03     0.00512     0.00546       0.000
  j_90334              JUNCTION     0.012    0.012     0  02:05      0.0176      0.0176       0.000
  j_90335              JUNCTION     0.020    0.020     0  02:05      0.0244      0.0244       0.000
  j_90336              JUNCTION     0.003    0.014     0  02:05     0.00447      0.0207       0.000
  j_90363              JUNCTION     0.023    0.023     0  02:05      0.0273      0.0273       0.000
  j_90364              JUNCTION     0.006    0.042     0  02:03     0.00808      0.0544       0.084
  j_90365              JUNCTION     0.001    0.002     0  02:00     0.00141     0.00157       3.256
  j_90366              JUNCTION     0.007    0.007     0  02:05     0.00933     0.00933       0.000
  j_90367              JUNCTION     0.007    0.055     0  02:03     0.00911       0.073      -0.069
  j_90368              JUNCTION     0.000    0.002     0  02:02           0    0.000436       0.510
  j_90369              JUNCTION     0.017    0.017     0  02:05      0.0217      0.0217       0.000
  j_90370              JUNCTION     0.008    0.043     0  02:01     0.00941      0.0554      -0.151
  j_90371              JUNCTION     0.010    0.098     0  02:04      0.0121       0.167       0.003
  j_90372              JUNCTION     0.004    0.004     0  02:05     0.00542     0.00542       0.000
  j_90373              JUNCTION     0.007    0.018     0  02:01     0.00829      0.0281      -0.073
  j_90374              JUNCTION     0.000    0.010     0  02:04           0      0.0034       0.000
  j_90375              JUNCTION     0.009    0.018     0  02:04      0.0107      0.0185       0.152
  j_90376              JUNCTION     0.001    0.005     0  02:05     0.00185     0.00677       0.000
  j_90377              JUNCTION     0.008    0.016     0  02:10     0.00898      0.0178      -0.329
  j_90378              JUNCTION     0.008    0.020     0  02:05      0.0101      0.0257       0.000
  j_90379              JUNCTION     0.012    0.012     0  02:05      0.0156      0.0156      -0.162
  j_90380              JUNCTION     0.014    0.014     0  02:05      0.0175      0.0175       0.000
  j_90381              JUNCTION     0.008    0.022     0  02:05      0.0105      0.0281       0.770
  j_90382              JUNCTION     0.010    0.210     0  02:05      0.0124       0.401      -0.029
  j_90383              JUNCTION     0.009    0.195     0  02:05      0.0105       0.361      -0.029
  j_90384              JUNCTION     0.005    0.024     0  02:05      0.0062      0.0303       0.549
  j_90385              JUNCTION     0.007    0.019     0  02:05     0.00835      0.0241       0.132
  j_90386              JUNCTION     0.012    0.012     0  02:05      0.0157      0.0157      -0.213
  j_90387              JUNCTION     0.008    0.008     0  02:05     0.00995     0.00995       0.000
  j_90388              JUNCTION     0.005    0.013     0  02:05      0.0061      0.0161       1.463
  j_90389              JUNCTION     0.006    0.146     0  02:05     0.00818       0.255       0.000
  j_90390              JUNCTION     0.003    0.106     0  02:05     0.00456       0.188      -0.019
  j_90391              JUNCTION     0.004    0.039     0  02:05     0.00626      0.0593       0.011
  j_90392              JUNCTION     0.009    0.035     0  02:05      0.0123      0.0531       0.079
  j_90393              JUNCTION     0.015    0.028     0  02:05      0.0201      0.0408      -0.053
  j_90394              JUNCTION     0.005    0.012     0  02:05     0.00636      0.0162       0.020
  j_90395              JUNCTION     0.006    0.008     0  02:05     0.00713     0.00985      -0.058
  j_90396              JUNCTION     0.002    0.002     0  02:01     0.00272     0.00272       0.290
  j_90397              JUNCTION     0.007    0.175     0  02:05     0.00876        0.32      -0.004
  j_90398              JUNCTION     0.007    0.039     0  02:02     0.00994      0.0563      -0.221
  j_90399              JUNCTION     0.008    0.011     0  02:03     0.00992      0.0133       1.166
  j_90400              JUNCTION     0.005    0.011     0  02:10     0.00637      0.0101      -0.024
  j_90401              JUNCTION     0.008    0.014     0  02:10     0.00977      0.0166      -0.068
  j_90402              JUNCTION     0.008    0.016     0  02:10     0.00981      0.0164       0.000
  j_90403              JUNCTION     0.005    0.011     0  02:10     0.00598     0.00933      -0.117
  j_90404              JUNCTION     0.008    0.010     0  02:05     0.00975      0.0123       1.037
  j_90405              JUNCTION     0.008    0.027     0  02:02      0.0105      0.0362       0.022
  j_90406              JUNCTION     0.008    0.023     0  02:02     0.00998      0.0263      -0.460
  j_90407              JUNCTION     0.006    0.008     0  02:05     0.00774      0.0086      -0.955
  j_90408              JUNCTION     0.016    0.017     0  02:09      0.0198      0.0213       0.717
  j_90427              JUNCTION     0.017    0.028     0  02:01      0.0209      0.0343       0.000
  j_90428              JUNCTION     0.009    0.020     0  02:10      0.0121       0.022       0.120
  j_90430              JUNCTION     0.005    0.834     0  02:11     0.00622         1.6       0.005
  j_90433              JUNCTION     0.003    0.003     0  02:05      0.0033      0.0033       0.000
  j_90434              JUNCTION     0.006    0.019     0  02:11     0.00702      0.0236       1.962
  j_90435              JUNCTION     0.009    0.024     0  02:10      0.0111      0.0342       0.033
  j_90436              JUNCTION     0.005    0.060     0  02:05     0.00623      0.0777       0.000
  j_90437              JUNCTION     0.012    0.833     0  02:10      0.0142         1.6       0.016
  j_90438              JUNCTION     0.009    0.758     0  02:10      0.0115        1.47       0.011
  j_90439              JUNCTION     0.005    0.036     0  02:10     0.00661      0.0402       0.000
  j_90440              JUNCTION     0.016    0.030     0  02:10      0.0204      0.0293      -0.035
  j_90441              JUNCTION     0.007    0.007     0  02:05     0.00993     0.00993      -0.050
  j_90442              JUNCTION     0.016    0.177     0  02:10      0.0233       0.343       0.042
  j_90443              JUNCTION     0.023    0.717     0  02:10      0.0311        1.42      -0.001
  j_90444              JUNCTION     0.009    0.252     0  02:06      0.0115       0.532      -0.000
  j_90445              JUNCTION     0.008    0.028     0  02:05      0.0106      0.0361       0.199
  j_90446              JUNCTION     0.008    0.020     0  02:05        0.01      0.0255       0.049
[...]
  c_906492                1.00   0.35  0.00  0.00  0.06  0.00  0.00  0.60  0.00  0.00
  c_906501                1.00   0.34  0.00  0.00  0.66  0.00  0.00  0.00  0.52  0.00
  c_906511                1.00   0.34  0.00  0.00  0.66  0.00  0.00  0.00  0.43  0.00
  c_906521                1.00   0.34  0.05  0.00  0.61  0.00  0.00  0.00  0.12  0.00
  c_906531                1.00   0.39  0.10  0.00  0.52  0.00  0.00  0.00  0.50  0.00
  c_906541                1.00   0.34  0.01  0.00  0.65  0.00  0.00  0.00  0.21  0.00
  c_906561                1.00   0.34  0.00  0.00  0.56  0.00  0.10  0.00  0.00  0.00
  c_906562                1.00   0.34  0.00  0.00  0.66  0.00  0.00  0.00  0.00  0.00
  c_906563                1.00   0.34  0.00  0.00  0.31  0.00  0.00  0.35  0.05  0.00
  c_906581                1.00   0.47  0.04  0.00  0.49  0.00  0.00  0.00  0.60  0.00
  c_906591                1.00   0.34  0.00  0.00  0.00  0.00  0.00  0.66  0.00  0.00
  c_906592                1.00   0.34  0.13  0.00  0.53  0.00  0.00  0.00  0.59  0.00
  c_906621                1.00   0.34  0.00  0.00  0.00  0.00  0.00  0.66  0.00  0.00
  c_906622                1.00   0.34  0.00  0.00  0.40  0.26  0.00  0.00  0.35  0.00
  c_906631                1.00   0.34  0.00  0.00  0.30  0.00  0.00  0.36  0.00  0.00
  c_906641                1.00   0.34  0.00  0.00  0.37  0.00  0.00  0.29  0.00  0.00
  c_906651                1.00   0.34  0.00  0.00  0.64  0.00  0.00  0.02  0.00  0.00
  c_906701                1.00   0.34  0.00  0.00  0.66  0.00  0.00  0.00  0.00  0.00
  c_906731                1.00   0.34  0.00  0.00  0.47  0.00  0.00  0.19  0.00  0.00
  c_906741                1.00   0.34  0.00  0.00  0.66  0.00  0.00  0.00  0.00  0.00
  c_906742                1.00   0.34  0.00  0.00  0.65  0.00  0.00  0.01  0.10  0.00
  c_906751                1.00   0.37  0.05  0.00  0.58  0.00  0.00  0.00  0.18  0.00
  c_906761                1.00   0.34  0.00  0.00  0.66  0.00  0.00  0.00  0.01  0.00
  c_906771                1.00   0.34  0.00  0.00  0.66  0.00  0.00  0.00  0.01  0.00
  c_906772                1.00   0.34  0.00  0.00  0.66  0.00  0.00  0.00  0.00  0.00
  c_906781                1.00   0.34  0.04  0.00  0.62  0.00  0.00  0.00  0.38  0.00
  c_906791                1.00   0.38  0.11  0.00  0.51  0.00  0.00  0.00  0.33  0.00
  c_906801                1.00   0.35  0.00  0.00  0.49  0.00  0.00  0.16  0.05  0.00
  c_906811                1.00   0.34  0.00  0.00  0.65  0.00  0.00  0.01  0.33  0.00
  c_906821                1.00   0.34  0.07  0.00  0.59  0.00  0.00  0.00  0.54  0.00
  c_906831                1.00   0.35  0.00  0.00  0.31  0.00  0.00  0.34  0.00  0.00
  c_906832                1.00   0.34  0.00  0.00  0.66  0.00  0.00  0.00  0.36  0.00
  c_906841                1.00   0.34  0.00  0.00  0.41  0.00  0.00  0.25  0.01  0.00
  c_906851                1.00   0.34  0.00  0.00  0.00  0.00  0.00  0.66  0.00  0.00
  c_906861                1.00   0.34  0.03  0.00  0.63  0.00  0.00  0.00  0.25  0.00
  c_906862                1.00   0.37  0.10  0.00  0.53  0.00  0.00  0.00  0.31  0.00
  c_906891                1.00   0.34  0.00  0.00  0.00  0.00  0.00  0.66  0.00  0.00
  c_906892                1.00   0.34  0.00  0.00  0.00  0.00  0.00  0.66  0.00  0.00
  c_906901                1.00   0.34  0.00  0.00  0.66  0.00  0.00  0.00  0.51  0.00
  c_906911                1.00   0.34  0.00  0.00  0.00  0.00  0.00  0.66  0.00  0.00
  c_906921                1.00   0.34  0.05  0.00  0.61  0.00  0.00  0.00  0.61  0.00
  c_906931                1.00   0.39  0.61  0.00  0.00  0.00  0.00  0.00  0.00  0.00
  c_906932                1.00   0.34  0.00  0.00  0.00  0.00  0.00  0.66  0.00  0.00
  c_906941                1.00   0.34  0.58  0.00  0.08  0.00  0.00  0.00  0.49  0.00
  c_906951                1.00   0.34  0.00  0.00  0.00  0.00  0.00  0.66  0.00  0.00
  c_906961                1.00   0.34  0.00  0.00  0.66  0.00  0.00  0.00  0.59  0.00
  c_906971                1.00   0.34  0.00  0.00  0.66  0.00  0.00  0.00  0.60  0.00
  c_906981                1.00   0.34  0.00  0.00  0.66  0.00  0.00  0.00  0.54  0.00
  c_906991                1.00   0.34  0.00  0.00  0.66  0.00  0.00  0.00  0.53  0.00
  c_906992                1.00   0.34  0.00  0.00  0.66  0.00  0.00  0.00  0.50  0.00
  c_907001                1.00   0.34  0.00  0.00  0.00  0.00  0.00  0.66  0.00  0.00
  c_907011                1.00   0.34  0.00  0.00  0.00  0.00  0.00  0.66  0.00  0.00
  c_907021                1.00   0.34  0.00  0.00  0.00  0.00  0.00  0.66  0.00  0.00
  c_907031                1.00   0.34  0.00  0.00  0.66  0.00  0.00  0.00  0.20  0.00
  c_907032                1.00   0.34  0.00  0.00  0.36  0.00  0.00  0.30  0.09  0.00
  c_907033                1.00   0.34  0.00  0.00  0.57  0.00  0.00  0.09  0.12  0.00
  c_907041                1.00   0.34  0.00  0.00  0.37  0.00  0.00  0.29  0.00  0.00
  c_907042                1.00   0.34  0.15  0.00  0.51  0.00  0.00  0.00  0.23  0.00
  c_907051                1.00   0.56  0.26  0.00  0.17  0.00  0.01  0.00  0.02  0.00
  c_907061                1.00   0.34  0.00  0.00  0.66  0.00  0.00  0.00  0.01  0.00
  c_907062                1.00   0.34  0.00  0.00  0.66  0.00  0.00  0.00  0.27  0.00
  c_907071                1.00   0.34  0.00  0.00  0.32  0.00  0.00  0.34  0.00  0.00
  c_907081                1.00   0.34  0.00  0.00  0.26  0.00  0.00  0.40  0.07  0.00
  c_907091                1.00   0.34  0.00  0.00  0.66  0.00  0.00  0.00  0.45  0.00
  c_907101                1.00   0.34  0.07  0.00  0.59  0.00  0.00  0.00  0.52  0.00
  c_907241                1.00   0.34  0.00  0.00  0.66  0.00  0.00  0.00  0.00  0.00
  c_907242                1.00   0.34  0.00  0.00  0.66  0.00  0.00  0.00  0.00  0.00
  c_907251                1.00   0.34  0.00  0.00  0.57  0.00  0.00  0.09  0.45  0.00
  c_907261                1.00   0.34  0.16  0.00  0.50  0.00  0.00  0.00  0.51  0.00
  c_907271                1.00   0.50  0.02  0.00  0.48  0.00  0.00  0.00  0.54  0.00
  c_907281                1.00   0.34  0.62  0.00  0.02  0.00  0.02  0.00  0.01  0.00
  c_907291                1.00   0.34  0.08  0.00  0.58  0.00  0.00  0.00  0.61  0.00
  c_907301                1.00   0.34  0.00  0.00  0.66  0.00  0.00  0.00  0.54  0.00
  c_907311                1.00   0.34  0.01  0.00  0.65  0.00  0.00  0.00  0.57  0.00
  c_907321                1.00   0.35  0.15  0.00  0.50  0.00  0.00  0.00  0.60  0.00
  c_907331                1.00   0.34  0.00  0.00  0.66  0.00  0.00  0.00  0.37  0.00
  c_907332                1.00   0.34  0.00  0.00  0.56  0.00  0.00  0.10  0.13  0.00
  c_912721                1.00   1.00  0.00  0.00  0.00  0.00  0.00  0.00  0.00  0.00
  c_912731                1.00   1.00  0.00  0.00  0.00  0.00  0.00  0.00  0.00  0.00
  c_912741                1.00   1.00  0.00  0.00  0.00  0.00  0.00  0.00  0.00  0.00
  c_912751                1.00   1.00  0.00  0.00  0.00  0.00  0.00  0.00  0.00  0.00
  c_912761                1.00   1.00  0.00  0.00  0.00  0.00  0.00  0.00  0.00  0.00
  c_912771                1.00   1.00  0.00  0.00  0.00  0.00  0.00  0.00  0.00  0.00
  c_912781                1.00   1.00  0.00  0.00  0.00  0.00  0.00  0.00  0.00  0.00
  c_912791                1.00   1.00  0.00  0.00  0.00  0.00  0.00  0.00  0.00  0.00
  c_912931                1.00   0.46  0.54  0.00  0.00  0.00  0.00  0.00  0.00  0.00
  c_912932                1.00   0.45  0.00  0.00  0.17  0.00  0.00  0.37  0.00  0.00
  c_912941                1.00   1.00  0.00  0.00  0.00  0.00  0.00  0.00  0.00  0.00
  
  
  *************************
  Conduit Surcharge Summary
  *************************
  
  ----------------------------------------------------------------------------
                                                           Hours        Hours 
                         --------- Hours Full --------   Above Full   Capacity
  Conduit                Both Ends  Upstream  Dnstream   Normal Flow   Limited
  ----------------------------------------------------------------------------
  c_903642                    0.13      0.13      0.14      0.45         0.01
  c_903651                    0.12      0.13      0.13      0.01         0.04
  c_903671                    0.01      0.01      0.06      0.01         0.01
  c_903672                    0.01      0.01      0.01      0.17         0.01
  c_903701                    0.01      0.01      0.10      0.01         0.01
  c_903702                    0.01      0.01      0.10      0.01         0.01
  c_903711                    0.03      0.03      0.20      0.01         0.01
  c_903712                    0.06      0.06      0.16      0.01         0.01
  c_903731                    0.01      0.01      0.20      0.01         0.01
  c_903732                    0.01      0.01      0.17      0.01         0.01
  c_903752                    0.01      0.01      0.02      0.01         0.01
  c_903972                    0.01      0.01      0.17      0.01         0.01
  c_903981                    0.18      0.18      0.36      0.01         0.01
  c_904051                    0.01      0.01      0.18      0.01         0.01
  c_904062                    0.01      0.01      0.01      0.01         0.01
  c_904281                    0.01      0.01      0.07      0.01         0.01
  c_904381                    0.01      0.01      0.01      0.38         0.01
  c_904421                    0.01      0.01      0.01      0.67         0.01
  c_904441                    0.19      0.19      0.35      0.01         0.01
  c_904512                    0.09      0.09      0.19      0.01         0.01
  c_904531                    0.05      0.05      0.06      0.02         0.01
  c_904532                    0.06      0.06      0.09      0.01         0.01
  c_904571                    0.01      0.01      0.01      0.14         0.01
  c_904592                    0.01      0.01      0.01      0.36         0.01
  c_904611                    0.14      0.14      0.18      0.01         0.01
  c_904612                    0.01      0.01      0.03      0.01         0.01
  c_904621                    0.01      0.01      0.01      0.18         0.01
  c_904641                    0.01      0.01      0.19      0.01         0.01
  c_904701                    0.01      0.01      0.18      0.01         0.01
  c_904791                    0.01      0.01      0.13      0.01         0.01
  c_904821                    0.13      0.13      0.19      0.01         0.01
  c_904822                    0.12      0.12      0.19      0.01         0.01
  c_904831                    0.01      0.01      0.06      0.01         0.01
  c_904861                    0.16      0.16      0.25      0.01         0.01
  c_904862                    0.01      0.01      0.11      0.01         0.01
  c_904871                    0.15      0.15      0.32      0.01         0.01
  c_904881                    0.32      0.32      0.42      0.01         0.01
  c_904882                    0.01      0.01      0.01      0.12         0.01
  c_904921                    0.38      0.38      0.42      0.06         0.06
  c_904922                    0.01      0.01      0.25      0.01         0.01
  c_904951                    0.56      0.56      0.59      0.01         0.01
  c_904952                    0.73      0.73      0.74      0.01         0.01
  c_904961                    0.01      0.01      0.25      0.01         0.01
  c_904982                    0.01      0.01      0.01      0.01         0.01
  c_904991                    0.18      0.18      0.18      0.27         0.15
  c_905001                    0.01      0.01      0.18      0.01         0.01
  c_905051                    0.31      0.31      0.49      0.01         0.01
  c_905061                    0.31      0.31      0.34      0.01         0.01
  c_905071                    0.01      0.01      0.34      0.01         0.01
  c_905081                    0.22      0.22      0.30      0.01         0.01
  c_905091                    0.01      0.01      0.12      0.01         0.01
  c_905111                    0.01      0.01      0.20      0.01         0.01
  c_905121                    0.43      0.43      0.49      0.01         0.01
  c_905131                    0.01      0.01      0.29      0.01         0.01
  c_905161                    0.01      0.01      0.01      0.29         0.01
  c_905171                    0.19      0.19      0.27      0.01         0.01
  c_905182                    0.13      0.13      0.21      0.28         0.01
  c_905191                    0.01      0.01      0.07      0.01         0.01
  c_905192                    0.17      0.17      0.21      0.01         0.01
  c_905241                    0.31      0.31      0.45      0.01         0.01
  c_905251                    0.09      0.09      0.31      0.01         0.01
  c_905261                    0.01      0.01      0.09      0.01         0.01
  c_905521                    0.01      0.01      0.01      0.45         0.01
  c_905541                    0.01      0.01      0.07      0.01         0.01
  c_905561                    0.05      0.05      0.07      0.01         0.01
  c_905571                    0.05      0.05      0.05      0.53         0.01
  c_905572                    0.03      0.03      0.06      0.01         0.01
  c_905581                    0.03      0.03      0.33      0.01         0.01
  c_905591                    0.16      0.16      0.38      0.01         0.01
  c_905601                    0.39      0.39      0.42      0.01         0.01
  c_905602                    0.01      0.01      0.39      0.01         0.01
  c_905611                    0.05      0.05      0.13      0.01         0.01
  c_905621                    0.05      0.05      0.20      0.01         0.01
  c_905622                    0.01      0.01      0.20      0.01         0.01
  c_905631                    0.16      0.16      0.25      0.01         0.01
  c_905632                    0.35      0.35      0.36      1.26         0.01
  c_905641                    0.01      0.01      0.18      0.01         0.01
  c_905651                    0.01      0.01      0.20      0.01         0.01
  c_905711                    0.01      0.01      0.04      0.01         0.01
  c_905721                    0.27      0.27      0.29      0.01         0.03
  c_905722                    0.07      0.07      0.35      0.01         0.01
  c_905731                    0.01      0.01      0.01      0.04         0.01
  c_905732                    0.01      0.01      0.24      0.01         0.01
  c_905741                    0.74      0.74      0.80      0.01         0.01
  c_905751                    0.77      0.77      0.97      0.01         0.01
  c_905752                    0.35      0.35      0.41      0.01         0.01
  c_905761                    0.01      0.01      0.01      0.08         0.01
  c_905781                    0.31      0.31      0.37      0.01         0.01
  c_905791                    0.15      0.15      0.31      0.01         0.01
  c_905821                    0.01      0.01      0.01      0.28         0.01
  c_905851                    0.28      0.28      0.39      0.01         0.01
  c_905852                    0.01      0.01      0.26      0.01         0.01
  c_905861                    0.26      0.31      0.26      1.33         0.26
  c_905862                    0.01      0.01      0.19      0.01         0.01
  c_905871                    0.27      0.27      0.31      0.01         0.01
  c_905881                    0.01      0.01      0.38      0.01         0.01
  c_905901                    0.01      0.01      0.22      0.01         0.01
  c_905921                    0.56      0.56      0.64      0.01         0.01
  c_905931                    0.27      0.29      0.27      1.27         0.27
  c_905941                    0.12      0.12      0.29      0.01         0.01
  c_905942                    0.59      0.59      0.64      0.56         0.01
  c_905951                    0.01      0.01      0.25      0.01         0.01
  c_905961                    0.01      0.01      0.24      0.01         0.01
  c_906041                    0.01      0.01      0.09      0.01         0.01
  c_906051                    0.04      0.04      0.26      0.01         0.01
  c_906052                    0.01      0.01      0.14      0.01         0.01
  c_906061                    0.16      0.16      0.26      0.01         0.01
  c_906071                    0.13      0.13      0.22      0.01         0.01
  c_906081                    0.03      0.03      0.13      0.01         0.01
  c_906082                    0.01      0.01      0.03      0.01         0.01
  c_906111                    0.01      0.01      0.15      0.01         0.01
  c_906201                    0.01      0.01      0.01      1.14         0.01
  c_906211                    0.01      0.01      0.18      0.01         0.01
  c_906241                    0.61      0.61      0.75      0.01         0.01
  c_906261                    0.50      0.50      0.69      0.01         0.01
  c_906271                    0.69      0.69      0.72      0.01         0.01
  c_906272                    0.01      0.01      0.01      0.07         0.01
  c_906281                    0.01      0.01      0.16      0.01         0.01
  c_906322                    0.01      0.01      0.01      0.53         0.01
  c_906331                    0.01      0.01      0.08      0.01         0.01
  c_906341                    0.08      0.08      0.33      0.01         0.01
  c_906351                    0.42      0.42      0.50      0.01         0.01
  c_906352                    0.51      0.51      0.52      0.01         0.01
  c_906361                    0.22      0.22      0.47      0.01         0.01
  c_906381                    0.10      0.10      0.23      0.01         0.01
  c_906391                    0.01      0.01      0.12      0.01         0.01
  c_906411                    0.01      0.01      0.15      0.01         0.01
  c_906511                    0.01      0.01      0.28      0.01         0.01
  c_906561                    0.01      0.01      0.01      0.35         0.01
  c_906563                    0.01      0.01      0.17      0.01         0.01
  c_906631                    0.16      0.16      0.16      0.29         0.12
  c_906651                    0.90      0.90      0.90      0.01         0.09
  c_906731                    0.59      0.59      0.59      0.29         0.20
  c_906741                    0.01      0.01      0.01      0.69         0.01
  c_906781                    0.01      0.01      0.52      0.01         0.01
  c_906821                    0.01      0.01      0.47      0.01         0.01
  c_906841                    0.45      0.45      0.47      0.01         0.01
  c_907031                    0.21      0.21      0.26      0.01         0.01
  c_907032                    0.14      0.14      0.38      0.01         0.01
  c_907033                    0.26      0.26      0.34      0.01         0.01
  c_907051                    0.01      0.01      0.08      0.01         0.01
  c_907061                    0.45      0.45      0.54      0.01         0.01
  c_907062                    0.45      0.45      0.56      0.01         0.01
  c_907071                    0.26      0.26      0.27      0.01         0.01
  c_907081                    0.01      0.01      0.19      0.01         0.01
  c_907091                    0.04      0.04      0.43      0.01         0.01
  c_907101                    0.01      0.01      0.04      0.01         0.01
  c_907242                    0.01      0.01      0.01      0.07         0.01
  c_907251                    0.01      0.01      0.20      0.01         0.01
  c_907331                    0.01      0.01      0.08      0.01         0.01
  c_907332                    0.08      0.08      0.19      0.01         0.01
  

  Analysis begun on:  Sun Jun 12 01:37:38 2022
  Analysis ended on:  Sun Jun 12 01:37:44 2022
  Total elapsed time: 00:00:06