
  EPA STORM WATER MANAGEMENT MODEL - VERSION 5.1 (Build 5.1.015)
  --------------------------------------------------------------

  WARNING 04: minimum elevation drop used for Conduit c_903642
  WARNING 04: minimum elevation drop used for Conduit c_903651
  WARNING 04: minimum elevation drop used for Conduit c_903672
  WARNING 04: minimum elevation drop used for Conduit c_905571
  WARNING 04: minimum elevation drop used for Conduit c_905632
  WARNING 04: minimum elevation drop used for Conduit c_905821
  WARNING 04: minimum elevation drop used for Conduit c_905861
  WARNING 04: minimum elevation drop used for Conduit c_905931
  WARNING 04: minimum elevation drop used for Conduit c_906201
  WARNING 04: minimum elevation drop used for Conduit c_906322
  WARNING 04: minimum elevation drop used for Conduit c_906631
  WARNING 04: minimum elevation drop used for Conduit c_906641
  WARNING 04: minimum elevation drop used for Conduit c_906651
  WARNING 04: minimum elevation drop used for Conduit c_906731
  WARNING 04: minimum elevation drop used for Conduit c_906741
  WARNING 04: minimum elevation drop used for Conduit c_907242
  
  *********************
  Rainfall File Summary
  *********************
  Station    First        Last         Recording   Periods    Periods    Periods
  ID         Date         Date         Frequency  w/Precip    Missing    Malfunc.
  -------------------------------------------------------------------------------
  R1         01/01/2019   01/01/2019       5 min        86          0          0
  R1         01/01/2019   01/01/2019       5 min        86          0          0
  R1         01/01/2019   01/01/2019       5 min        86          0          0

  
  *********************************************************
  NOTE: The summary statistics displayed in this report are
  based on results found at every computational time step,  
  not just on results from each reporting time step.
  *********************************************************
  
  ****************
  Analysis Options
  ****************
  Flow Units ............... CMS
  Process Models:
    Rainfall/Runoff ........ YES
    RDII ................... NO
    Snowmelt ............... NO
    Groundwater ............ NO
    Flow Routing ........... YES
    Ponding Allowed ........ NO
    Water Quality .......... NO
  Infiltration Method ...... HORTON
  Flow Routing Method ...... DYNWAVE
  Surcharge Method ......... EXTRAN
  Starting Date ............ 01/01/2019 00:00:00
  Ending Date .............. 01/01/2019 07:10:00
  Antecedent Dry Days ...... 0.0
  Report Time Step ......... 00:05:00
  Wet Time Step ............ 00:01:00
  Dry Time Step ............ 00:10:00
  Routing Time Step ........ 1.00 sec
  Variable Time Step ....... YES
  Maximum Trials ........... 12
  Number of Threads ........ 2
  Head Tolerance ........... 0.000200 m
  
  
  **************************        Volume         Depth
  Runoff Quantity Continuity     hectare-m            mm
  **************************     ---------       -------
  Total Precipitation ......         2.068        74.500
  Evaporation Loss .........         0.008         0.274
  Infiltration Loss ........         0.018         0.655
  Surface Runoff ...........         1.951        70.289
  Final Storage ............         0.104         3.760
  Continuity Error (%) .....        -0.640
  
  
  **************************        Volume        Volume
  Flow Routing Continuity        hectare-m      10^6 ltr
  **************************     ---------     ---------
  Dry Weather Inflow .......         0.009         0.087
  Wet Weather Inflow .......         1.950        19.502
  Groundwater Inflow .......         0.000         0.000
  RDII Inflow ..............         0.000         0.000
  External Inflow ..........         0.000         0.000
  External Outflow .........         1.958        19.584
  Flooding Loss ............         0.000         0.004
  Evaporation Loss .........         0.000         0.000
  Exfiltration Loss ........         0.000         0.000
  Initial Stored Volume ....         0.000         0.000
  Final Stored Volume ......         0.004         0.043
  Continuity Error (%) .....        -0.215
  
  
  *************************
  Highest Continuity Errors
  *************************
  Node j_90650 (2.27%)
  Node j_90584 (2.13%)
  Node j_90638 (1.90%)
  Node j_90618 (1.54%)
  Node j_90457 (1.49%)
  
  
  ***************************
  Time-Step Critical Elements
  ***************************
  Link c_904312 (64.87%)
  
  
  ********************************
  Highest Flow Instability Indexes
  ********************************
  Link c_906651 (15)
  Link c_904611 (6)
  Link c_906641 (2)
  Link c_906192 (2)
  Link c_906622 (2)
  
  
  *************************
  Routing Time Step Summary
  *************************
  Minimum Time Step           :     0.50 sec
  Average Time Step           :     0.75 sec
  Maximum Time Step           :     1.00 sec
  Percent in Steady State     :     1.16
  Average Iterations per Step :     4.96
  Percent Not Converging      :    22.65
  Time Step Frequencies       :
      1.000 -  0.871 sec      :    37.48 %
      0.871 -  0.758 sec      :     8.33 %
      0.758 -  0.660 sec      :     9.81 %
      0.660 -  0.574 sec      :    14.42 %
      0.574 -  0.500 sec      :    29.97 %
  
  
  ***************************
  Subcatchment Runoff Summary
  ***************************
  
  ------------------------------------------------------------------------------------------------------------------------------
                            Total      Total      Total      Total     Imperv       Perv      Total       Total     Peak  Runoff
                           Precip      Runon       Evap      Infil     Runoff     Runoff     Runoff      Runoff   Runoff   Coeff
  Subcatchment                 mm         mm         mm         mm         mm         mm         mm    10^6 ltr      CMS
  ------------------------------------------------------------------------------------------------------------------------------
  sub_9006F                 74.50       0.00       0.27       0.54      45.59      24.37      69.97        0.03     0.00   0.939
  sub_90334                 74.50       0.00       0.27       1.43       8.25      64.30      72.55        0.08     0.01   0.974
  sub_90335                 74.50       0.00       0.27       0.33      54.57      14.78      69.34        0.13     0.02   0.931
  sub_90336                 74.50       0.00       0.27       1.10      22.06      49.53      71.59        0.02     0.00   0.961
  sub_90363                 74.50       0.00       0.27       0.33      54.46      14.89      69.35        0.15     0.02   0.931
  sub_90364                 74.50       0.00       0.27       1.22      17.41      54.51      71.92        0.04     0.01   0.965
  sub_90365                 74.50       0.00       0.27       1.63       0.00      73.12      73.12        0.01     0.00   0.981
  sub_90366                 74.50       0.00       0.27       0.55      45.27      24.72      69.99        0.05     0.01   0.939
  sub_90367                 74.50       0.00       0.27       0.93      29.46      41.62      71.08        0.05     0.01   0.954
  sub_90369                 74.50       0.00       0.27       0.66      40.53      29.79      70.32        0.11     0.02   0.944
  sub_90370                 74.50       0.00       0.27       0.45      49.65      20.03      69.68        0.05     0.01   0.935
  sub_90371                 74.50       0.00       0.27       0.23      58.62      10.45      69.06        0.07     0.01   0.927
  sub_90372                 74.50       0.00       0.27       1.03      25.20      46.18      71.38        0.03     0.00   0.958
  sub_90373                 74.50       0.00       0.27       0.07      65.41       3.18      68.59        0.05     0.01   0.921
  sub_90375                 74.50       0.00       0.27       0.33      54.71      14.62      69.33        0.06     0.01   0.931
  sub_90376                 74.50       0.00       0.27       0.58      43.96      26.11      70.08        0.01     0.00   0.941
  sub_90377                 74.50       0.00       0.27       0.34      53.94      15.45      69.39        0.05     0.01   0.931
  sub_90378                 74.50       0.00       0.27       0.46      49.10      20.62      69.72        0.05     0.01   0.936
  sub_90379                 74.50       0.00       0.27       0.77      35.99      34.64      70.63        0.08     0.01   0.948
  sub_90380                 74.50       0.00       0.27       0.70      38.93      31.50      70.43        0.09     0.01   0.945
  sub_90381                 74.50       0.00       0.27       0.71      38.58      31.87      70.45        0.05     0.01   0.946
  sub_90382                 74.50       0.00       0.27       0.59      43.65      26.45      70.10        0.07     0.01   0.941
  sub_90383                 74.50       0.00       0.27       0.50      47.28      22.57      69.85        0.06     0.01   0.938
  sub_90384                 74.50       0.00       0.27       0.96      27.98      43.21      71.18        0.03     0.00   0.955
  sub_90385                 74.50       0.00       0.27       0.43      50.50      19.12      69.63        0.05     0.01   0.935
  sub_90386                 74.50       0.00       0.27       0.78      35.68      34.97      70.65        0.08     0.01   0.948
  sub_90387                 74.50       0.00       0.27       0.61      42.86      27.30      70.15        0.05     0.01   0.942
  sub_90388                 74.50       0.00       0.27       0.60      43.11      27.02      70.14        0.03     0.01   0.941
  sub_90389                 74.50       0.00       0.27       0.67      40.36      29.97      70.33        0.04     0.01   0.944
  sub_90390                 74.50       0.00       0.27       0.84      33.16      37.67      70.83        0.02     0.00   0.951
  sub_90391                 74.50       0.00       0.27       1.63       0.00      73.12      73.12        0.03     0.00   0.981
  sub_90392                 74.50       0.00       0.27       1.04      24.65      46.76      71.41        0.06     0.01   0.959
  sub_90393                 74.50       0.00       0.27       1.03      25.22      46.15      71.38        0.10     0.02   0.958
  sub_90394                 74.50       0.00       0.27       0.98      27.36      43.87      71.23        0.03     0.00   0.956
  sub_90395                 74.50       0.00       0.27       0.38      52.51      16.97      69.49        0.04     0.01   0.933
  sub_90396                 74.50       0.00       0.27       0.00      68.39       0.00      68.39        0.02     0.00   0.918
  sub_90397                 74.50       0.00       0.27       0.88      31.48      39.46      70.94        0.04     0.01   0.952
  sub_90398                 74.50       0.00       0.27       0.92      29.86      41.19      71.05        0.05     0.01   0.954
  sub_90399                 74.50       0.00       0.27       0.51      46.79      23.09      69.88        0.05     0.01   0.938
  sub_90400                 74.50       0.00       0.27       0.61      42.74      27.42      70.16        0.03     0.01   0.942
  sub_90401                 74.50       0.00       0.27       0.36      53.29      16.14      69.43        0.05     0.01   0.932
  sub_90402                 74.50       0.00       0.27       0.38      52.40      17.09      69.49        0.05     0.01   0.933
  sub_90403                 74.50       0.00       0.27       0.62      42.55      27.62      70.18        0.03     0.00   0.942
  sub_90404                 74.50       0.00       0.27       0.65      41.22      29.05      70.27        0.05     0.01   0.943
  sub_90405                 74.50       0.00       0.27       0.71      38.58      31.87      70.45        0.05     0.01   0.946
  sub_90406                 74.50       0.00       0.27       0.86      32.29      38.59      70.89        0.05     0.01   0.951
  sub_90407                 74.50       0.00       0.27       0.84      32.97      37.87      70.84        0.04     0.01   0.951
  sub_90408                 74.50       0.00       0.27       0.54      45.74      24.21      69.96        0.11     0.02   0.939
  sub_90427                 74.50       0.00       0.27       0.63      41.82      28.41      70.23        0.11     0.02   0.943
  sub_90428                 74.50       0.00       0.27       0.77      36.12      34.51      70.62        0.06     0.01   0.948
  sub_90430                 74.50       0.00       0.27       0.37      53.04      16.41      69.45        0.03     0.01   0.932
  sub_90431                 74.50       0.00       0.27       0.59      43.61      26.49      70.10        0.05     0.01   0.941
  sub_90433                 74.50       0.00       0.27       0.82      34.19      36.56      70.75        0.02     0.00   0.950
  sub_90434                 74.50       0.00       0.27       0.29      56.18      13.06      69.23        0.04     0.01   0.929
  sub_90435                 74.50       0.00       0.27       0.52      46.66      23.23      69.89        0.06     0.01   0.938
  sub_90436                 74.50       0.00       0.27       0.26      57.45      11.70      69.15        0.03     0.01   0.928
  sub_90437                 74.50       0.00       0.27       0.41      51.14      18.44      69.58        0.08     0.01   0.934
  sub_90438                 74.50       0.00       0.27       0.58      44.02      26.05      70.07        0.06     0.01   0.941
  sub_90439                 74.50       0.00       0.27       0.59      43.77      26.32      70.09        0.04     0.01   0.941
  sub_90440                 74.50       0.00       0.27       0.66      40.49      29.83      70.32        0.11     0.02   0.944
  sub_90441                 74.50       0.00       0.27       1.09      22.80      48.75      71.54        0.05     0.01   0.960
  sub_90442                 74.50       0.00       0.27       1.28      14.81      57.29      72.10        0.11     0.02   0.968
  sub_90443                 74.50       0.00       0.27       0.95      28.47      42.68      71.15        0.16     0.02   0.955
  sub_90444                 74.50       0.00       0.27       0.46      49.18      20.54      69.72        0.06     0.01   0.936
  sub_90445                 74.50       0.00       0.27       0.80      34.64      36.09      70.72        0.05     0.01   0.949
  sub_90446                 74.50       0.00       0.27       0.49      47.96      21.84      69.80        0.05     0.01   0.937
  sub_90447                 74.50       0.00       0.27       0.76      36.59      33.99      70.59        0.08     0.01   0.947
  sub_90448                 74.50       0.00       0.27       0.70      38.84      31.59      70.43        0.09     0.01   0.945
  sub_90449                 74.50       0.00       0.27       0.66      40.53      29.79      70.32        0.04     0.01   0.944
  sub_90450                 74.50       0.00       0.27       0.56      44.81      25.21      70.02        0.02     0.00   0.940
  sub_90451                 74.50       0.00       0.27       0.71      38.42      32.04      70.46        0.06     0.01   0.946
  sub_90452                 74.50       0.00       0.27       0.92      29.92      41.13      71.05        0.03     0.01   0.954
  sub_90453                 74.50       0.00       0.27       0.47      48.61      21.14      69.76        0.06     0.01   0.936
  sub_90454                 74.50       0.00       0.27       0.63      41.75      28.48      70.23        0.07     0.01   0.943
  sub_90455                 74.50       0.00       0.27       0.35      53.73      15.67      69.40        0.06     0.01   0.932
  sub_90456                 74.50       0.00       0.27       0.95      28.72      42.41      71.13        0.11     0.02   0.955
  sub_90457                 74.50       0.00       0.27       0.93      29.37      41.72      71.09        0.12     0.02   0.954
  sub_90459                 74.50       0.00       0.27       1.13      21.04      50.62      71.66        0.13     0.02   0.962
  sub_90460                 74.50       0.00       0.27       1.51       4.94      67.83      72.78        0.06     0.01   0.977
  sub_90461                 74.50       0.00       0.27       0.54      45.59      24.37      69.97        0.03     0.00   0.939
  sub_90462                 74.50       0.00       0.27       0.77      36.25      34.36      70.61        0.06     0.01   0.948
  sub_90463                 74.50       0.00       0.27       0.39      51.88      17.65      69.53        0.06     0.01   0.933
  sub_90464                 74.50       0.00       0.27       0.66      40.90      29.39      70.29        0.07     0.01   0.943
  sub_90465                 74.50       0.00       0.27       0.35      53.73      15.67      69.40        0.06     0.01   0.932
  sub_90466                 74.50       0.00       0.27       0.61      42.74      27.42      70.16        0.07     0.01   0.942
  sub_90467                 74.50       0.00       0.27       0.30      55.84      13.42      69.26        0.11     0.02   0.930
  sub_90468                 74.50       0.00       0.27       0.58      44.09      25.98      70.07        0.08     0.01   0.941
  sub_90469                 74.50       0.00       0.27       0.35      53.73      15.67      69.40        0.06     0.01   0.932
  sub_90470                 74.50       0.00       0.27       0.60      43.23      26.90      70.13        0.07     0.01   0.941
  sub_90471                 74.50       0.00       0.27       0.50      47.55      22.28      69.83        0.07     0.01   0.937
  sub_90477                 74.50       0.00       0.27       0.34      54.14      15.23      69.37        0.10     0.02   0.931
  sub_90478                 74.50       0.00       0.27       0.39      51.88      17.65      69.53        0.06     0.01   0.933
  sub_90479                 74.50       0.00       0.27       0.93      29.18      41.92      71.10        0.05     0.01   0.954
  sub_90480                 74.50       0.00       0.27       0.46      49.08      20.64      69.72        0.09     0.01   0.936
  sub_90481                 74.50       0.00       0.27       0.58      43.91      26.17      70.08        0.07     0.01   0.941
  sub_90482                 74.50       0.00       0.27       0.61      42.89      27.27      70.15        0.04     0.01   0.942
  sub_90483                 74.50       0.00       0.27       1.22      17.10      54.84      71.94        0.07     0.01   0.966
  sub_90484                 74.50       0.00       0.27       0.51      47.02      22.85      69.87        0.07     0.01   0.938
  sub_90485                 74.50       0.00       0.27       0.92      29.86      41.19      71.05        0.10     0.02   0.954
  sub_90486                 74.50       0.00       0.27       0.68      39.81      30.56      70.37        0.09     0.01   0.945
  sub_90487                 74.50       0.00       0.27       0.58      43.91      26.17      70.08        0.13     0.02   0.941
  sub_90488                 74.50       0.00       0.27       0.71      38.50      31.96      70.46        0.10     0.01   0.946
  sub_90489                 74.50       0.00       0.27       0.36      53.28      16.15      69.43        0.06     0.01   0.932
  sub_90490                 74.50       0.00       0.27       0.32      54.86      14.46      69.32        0.06     0.01   0.931
  sub_90491                 74.50       0.00       0.27       0.38      52.45      17.04      69.49        0.07     0.01   0.933
  sub_90492                 74.50       0.00       0.27       0.51      46.94      22.93      69.87        0.08     0.01   0.938
  sub_90493                 74.50       0.00       0.27       0.35      53.79      15.61      69.40        0.06     0.01   0.932
  sub_90494                 74.50       0.00       0.27       0.33      54.42      14.94      69.36        0.06     0.01   0.931
  sub_90495                 74.50       0.00       0.27       0.52      46.50      23.40      69.90        0.07     0.01   0.938
  sub_90496                 74.50       0.00       0.27       0.35      53.79      15.61      69.40        0.06     0.01   0.932
  sub_90497                 74.50       0.00       0.27       0.31      55.29      14.00      69.29        0.07     0.01   0.930
  sub_90498                 74.50       0.00       0.27       0.59      43.75      26.34      70.09        0.11     0.02   0.941
  sub_90499                 74.50       0.00       0.27       1.02      25.46      45.90      71.36        0.10     0.02   0.958
  sub_90500                 74.50       0.00       0.27       0.75      36.91      33.66      70.57        0.09     0.01   0.947
  sub_90501                 74.50       0.00       0.27       0.33      54.57      14.77      69.34        0.07     0.01   0.931
  sub_90502                 74.50       0.00       0.27       0.65      41.30      28.96      70.26        0.07     0.01   0.943
  sub_90503                 74.50       0.00       0.27       0.36      53.19      16.25      69.44        0.05     0.01   0.932
  sub_90504                 74.50       0.00       0.27       0.34      54.26      15.10      69.37        0.06     0.01   0.931
  sub_90505                 74.50       0.00       0.27       0.39      51.83      17.70      69.53        0.07     0.01   0.933
  sub_90506                 74.50       0.00       0.27       0.43      50.31      19.33      69.64        0.06     0.01   0.935
  sub_90507                 74.50       0.00       0.27       0.45      49.47      20.23      69.70        0.07     0.01   0.936
  sub_90508                 74.50       0.00       0.27       0.44      50.04      19.62      69.66        0.06     0.01   0.935
  sub_90509                 74.50       0.00       0.27       0.90      30.50      40.51      71.01        0.05     0.01   0.953
  sub_90510                 74.50       0.00       0.27       0.41      51.29      18.28      69.57        0.06     0.01   0.934
  sub_90511                 74.50       0.00       0.27       0.70      39.08      31.34      70.42        0.03     0.01   0.945
  sub_90512                 74.50       0.00       0.27       0.46      48.94      20.79      69.73        0.07     0.01   0.936
  sub_90513                 74.50       0.00       0.27       0.32      55.08      14.23      69.31        0.13     0.02   0.930
  sub_90514                 74.50       0.00       0.27       0.42      50.70      18.91      69.61        0.08     0.01   0.934
  sub_90515                 74.50       0.00       0.27       0.74      37.36      33.17      70.54        0.08     0.01   0.947
  sub_90516                 74.50       0.00       0.27       1.03      25.04      46.34      71.39        0.05     0.01   0.958
  sub_90517                 74.50       0.00       0.27       0.75      37.04      33.51      70.56        0.05     0.01   0.947
  sub_90518                 74.50       0.00       0.27       0.22      59.00      10.04      69.04        0.04     0.01   0.927
  sub_90519                 74.50       0.00       0.27       0.83      33.54      37.26      70.80        0.15     0.02   0.950
  sub_90520                 74.50       0.00       0.27       0.81      34.48      36.26      70.73        0.09     0.01   0.949
  sub_90521                 74.50       0.00       0.27       0.48      48.40      21.37      69.77        0.05     0.01   0.937
  sub_90522                 74.50       0.00       0.27       0.38      52.38      17.11      69.50        0.03     0.01   0.933
  sub_90523                 74.50       0.00       0.27       0.47      48.53      21.23      69.76        0.09     0.01   0.936
  sub_90524                 74.50       0.00       0.27       0.80      35.01      35.69      70.70        0.12     0.02   0.949
  sub_90525                 74.50       0.00       0.27       1.00      26.35      44.95      71.30        0.17     0.03   0.957
  sub_90526                 74.50       0.00       0.27       0.80      34.63      36.10      70.72        0.06     0.01   0.949
  sub_90527                 74.50       0.00       0.27       1.04      24.80      46.60      71.40        0.06     0.01   0.958
  sub_90549                 74.50       0.00       0.27       0.75      36.75      33.83      70.58        0.05     0.01   0.947
  sub_90550                 74.50       0.00       0.27       0.00      68.39       0.00      68.39        0.03     0.00   0.918
  sub_90551                 74.50       0.00       0.27       0.88      31.39      39.56      70.95        0.04     0.01   0.952
  sub_90552                 74.50       0.00       0.27       0.36      53.24      16.19      69.44        0.21     0.03   0.932
  sub_90553                 74.50       0.00       0.27       0.85      32.93      37.91      70.84        0.04     0.01   0.951
  sub_90554                 74.50       0.00       0.27       0.80      34.64      36.09      70.72        0.05     0.01   0.949
  sub_90555                 74.50       0.00       0.27       0.98      27.19      44.05      71.24        0.06     0.01   0.956
  sub_90556                 74.50       0.00       0.27       1.08      23.25      48.26      71.51        0.11     0.02   0.960
  sub_90557                 74.50       0.00       0.27       0.55      45.15      24.85      70.00        0.07     0.01   0.940
  sub_90558                 74.50       0.00       0.27       0.56      44.92      25.09      70.01        0.12     0.02   0.940
  sub_90559                 74.50       0.00       0.27       0.88      31.56      39.37      70.94        0.07     0.01   0.952
  sub_90560                 74.50       0.00       0.27       0.72      37.99      32.50      70.49        0.11     0.02   0.946
  sub_90561                 74.50       0.00       0.27       0.64      41.35      28.91      70.26        0.09     0.01   0.943
  sub_90562                 74.50       0.00       0.27       0.60      43.37      26.75      70.12        0.09     0.01   0.941
  sub_90563                 74.50       0.00       0.27       0.56      44.76      25.26      70.02        0.08     0.01   0.940
  sub_90564                 74.50       0.00       0.27       0.49      47.95      21.85      69.80        0.06     0.01   0.937
  sub_90565                 74.50       0.00       0.27       0.69      39.27      31.13      70.40        0.07     0.01   0.945
  sub_90566                 74.50       0.00       0.27       0.71      38.51      31.95      70.46        0.07     0.01   0.946
  sub_90567                 74.50       0.00       0.27       0.85      32.83      38.02      70.85        0.05     0.01   0.951
  sub_90568                 74.50       0.00       0.27       0.00      68.39       0.00      68.39        0.03     0.00   0.918
  sub_90569                 74.50       0.00       0.27       0.78      35.64      35.02      70.65        0.05     0.01   0.948
  sub_90570                 74.50       0.00       0.27       0.93      29.31      41.78      71.09        0.04     0.01   0.954
  sub_90571                 74.50       0.00       0.27       0.50      47.41      22.43      69.84        0.06     0.01   0.937
  sub_90572                 74.50       0.00       0.27       0.50      47.55      22.28      69.83        0.07     0.01   0.937
  sub_90573                 74.50       0.00       0.27       0.33      54.42      14.94      69.36        0.06     0.01   0.931
  sub_90574                 74.50       0.00       0.27       0.38      52.54      16.94      69.48        0.06     0.01   0.933
  sub_90575                 74.50       0.00       0.27       0.62      42.45      27.74      70.18        0.08     0.01   0.942
  sub_90576                 74.50       0.00       0.27       0.67      40.19      30.15      70.34        0.08     0.01   0.944
  sub_90577                 74.50       0.00       0.27       0.65      41.03      29.25      70.28        0.06     0.01   0.943
  sub_90578                 74.50       0.00       0.27       0.57      44.53      25.51      70.04        0.09     0.01   0.940
  sub_90579                 74.50       0.00       0.27       0.48      48.42      21.35      69.77        0.08     0.01   0.937
  sub_90580                 74.50       0.00       0.27       0.99      26.92      44.34      71.26        0.07     0.01   0.956
  sub_90581                 74.50       0.00       0.27       0.80      34.95      35.75      70.70        0.06     0.01   0.949
  sub_90582                 74.50       0.00       0.27       0.63      42.14      28.07      70.20        0.07     0.01   0.942
  sub_90583                 74.50       0.00       0.27       0.78      35.59      35.07      70.66        0.07     0.01   0.948
  sub_90584                 74.50       0.00       0.27       0.44      50.00      19.66      69.66        0.06     0.01   0.935
  sub_90585                 74.50       0.00       0.27       0.44      50.07      19.59      69.66        0.08     0.01   0.935
  sub_90586                 74.50       0.00       0.27       0.48      48.23      21.55      69.78        0.07     0.01   0.937
  sub_90587                 74.50       0.00       0.27       0.53      46.16      23.76      69.93        0.06     0.01   0.939
  sub_90588                 74.50       0.00       0.27       0.36      53.09      16.36      69.45        0.05     0.01   0.932
  sub_90589                 74.50       0.00       0.27       0.60      43.39      26.73      70.12        0.07     0.01   0.941
  sub_90590                 74.50       0.00       0.27       0.57      44.32      25.74      70.05        0.09     0.01   0.940
  sub_90591                 74.50       0.00       0.27       0.39      52.00      17.52      69.52        0.07     0.01   0.933
  sub_90592                 74.50       0.00       0.27       0.38      52.50      16.99      69.49        0.07     0.01   0.933
  sub_90593                 74.50       0.00       0.27       0.51      46.87      23.00      69.88        0.06     0.01   0.938
  sub_90594                 74.50       0.00       0.27       0.63      41.85      28.38      70.22        0.09     0.01   0.943
  sub_90595                 74.50       0.00       0.27       0.64      41.60      28.64      70.24        0.07     0.01   0.943
  sub_90596                 74.50       0.00       0.27       0.36      53.19      16.25      69.44        0.06     0.01   0.932
  sub_90597                 74.50       0.00       0.27       0.85      32.75      38.11      70.85        0.05     0.01   0.951
  sub_90598                 74.50       0.00       0.27       0.84      33.02      37.82      70.84        0.04     0.01   0.951
  sub_90599                 74.50       0.00       0.27       0.62      42.40      27.79      70.19        0.04     0.01   0.942
  sub_90600                 74.50       0.00       0.27       0.56      44.76      25.26      70.02        0.04     0.01   0.940
  sub_90601                 74.50       0.00       0.27       0.94      28.96      42.15      71.12        0.06     0.01   0.955
  sub_90602                 74.50       0.00       0.27       0.70      39.08      31.34      70.42        0.06     0.01   0.945
  sub_90603                 74.50       0.00       0.27       0.89      31.16      39.80      70.96        0.06     0.01   0.953
  sub_90604                 74.50       0.00       0.27       0.59      43.52      26.59      70.11        0.06     0.01   0.941
  sub_90605                 74.50       0.00       0.27       0.58      43.90      26.18      70.08        0.11     0.02   0.941
  sub_90606                 74.50       0.00       0.27       0.66      40.88      29.42      70.29        0.06     0.01   0.944
  sub_90607                 74.50       0.00       0.27       0.68      39.81      30.56      70.37        0.05     0.01   0.945
  sub_90608                 74.50       0.00       0.27       0.82      34.19      36.56      70.75        0.06     0.01   0.950
  sub_90609                 74.50       0.00       0.27       0.96      28.22      42.94      71.17        0.04     0.01   0.955
  sub_90610                 74.50       0.00       0.27       0.93      29.45      41.64      71.08        0.05     0.01   0.954
  sub_90611                 74.50       0.00       0.27       0.83      33.57      37.22      70.80        0.04     0.01   0.950
  sub_90612                 74.50       0.00       0.27       0.94      29.06      42.04      71.11        0.06     0.01   0.954
  sub_90613                 74.50       0.00       0.27       1.00      26.47      44.82      71.29        0.09     0.01   0.957
  sub_90615                 74.50       0.00       0.27       0.85      32.71      38.15      70.86        0.11     0.02   0.951
  sub_90616                 74.50       0.00       0.27       0.44      50.12      19.53      69.65        0.11     0.02   0.935
  sub_90617                 74.50       0.00       0.27       0.56      44.74      25.29      70.02        0.09     0.01   0.940
  sub_90618                 74.50       0.00       0.27       0.36      53.15      16.29      69.44        0.14     0.02   0.932
  sub_90619                 74.50       0.00       0.27       0.06      65.95       2.61      68.56        0.04     0.01   0.920
  sub_90620                 74.50       0.00       0.27       0.38      52.36      17.14      69.50        0.04     0.01   0.933
  sub_90621                 74.50       0.00       0.27       0.81      34.51      36.22      70.73        0.15     0.02   0.949
  sub_90623                 74.50       0.00       0.27       0.69      39.40      31.00      70.39        0.13     0.02   0.945
  sub_90624                 74.50       0.00       0.27       0.67      40.41      29.91      70.32        0.03     0.00   0.944
  sub_90625                 74.50       0.00       0.27       0.57      44.53      25.51      70.04        0.06     0.01   0.940
  sub_90626                 74.50       0.00       0.27       0.51      47.13      22.73      69.86        0.05     0.01   0.938
  sub_90627                 74.50       0.00       0.27       0.90      30.69      40.30      71.00        0.09     0.01   0.953
  sub_90628                 74.50       0.00       0.27       0.74      37.51      33.01      70.52        0.15     0.02   0.947
  sub_90629                 74.50       0.00       0.27       0.85      32.54      38.33      70.87        0.10     0.02   0.951
  sub_90630                 74.50       0.00       0.27       0.36      53.28      16.15      69.43        0.06     0.01   0.932
  sub_90631                 74.50       0.00       0.27       0.56      44.75      25.28      70.02        0.06     0.01   0.940
  sub_90632                 74.50       0.00       0.27       0.58      43.90      26.18      70.08        0.06     0.01   0.941
  sub_90633                 74.50       0.00       0.27       0.36      53.36      16.07      69.43        0.06     0.01   0.932
  sub_90634                 74.50       0.00       0.27       0.54      45.59      24.37      69.97        0.04     0.01   0.939
  sub_90635                 74.50       0.00       0.27       0.80      35.01      35.69      70.70        0.06     0.01   0.949
  sub_90636                 74.50       0.00       0.27       0.60      43.11      27.02      70.14        0.06     0.01   0.941
  sub_90637                 74.50       0.00       0.27       0.56      44.96      25.05      70.01        0.08     0.01   0.940
  sub_90638                 74.50       0.00       0.27       0.33      54.71      14.62      69.33        0.11     0.02   0.931
  sub_90639                 74.50       0.00       0.27       0.85      32.65      38.21      70.86        0.08     0.01   0.951
  sub_90640                 74.50       0.00       0.27       0.43      50.45      19.18      69.63        0.08     0.01   0.935
  sub_90641                 74.50       0.00       0.27       0.53      46.31      23.61      69.92        0.09     0.01   0.938
  sub_90642                 74.50       0.00       0.27       0.66      40.53      29.79      70.32        0.06     0.01   0.944
  sub_90643                 74.50       0.00       0.27       0.43      50.53      19.09      69.62        0.13     0.02   0.935
  sub_90644                 74.50       0.00       0.27       0.37      52.95      16.51      69.46        0.06     0.01   0.932
  sub_90645                 74.50       0.00       0.27       0.52      46.50      23.40      69.90        0.03     0.01   0.938
  sub_90646                 74.50       0.00       0.27       0.98      27.36      43.87      71.23        0.06     0.01   0.956
  sub_90647                 74.50       0.00       0.27       1.35      11.95      60.34      72.29        0.07     0.01   0.970
  sub_90648                 74.50       0.00       0.27       0.35      53.52      15.90      69.42        0.05     0.01   0.932
  sub_90649                 74.50       0.00       0.27       0.52      46.48      23.43      69.90        0.07     0.01   0.938
  sub_90650                 74.50       0.00       0.27       0.51      46.83      23.05      69.88        0.14     0.02   0.938
  sub_90651                 74.50       0.00       0.27       0.42      50.63      18.98      69.62        0.07     0.01   0.934
  sub_90652                 74.50       0.00       0.27       0.54      45.90      24.04      69.94        0.05     0.01   0.939
  sub_90653                 74.50       0.00       0.27       0.65      41.03      29.25      70.28        0.05     0.01   0.943
  sub_90654                 74.50       0.00       0.27       0.75      37.04      33.51      70.56        0.02     0.00   0.947
  sub_90655                 74.50       0.00       0.27       0.48      48.07      21.72      69.79        0.07     0.01   0.937
  sub_90656                 74.50       0.00       0.27       0.86      32.29      38.59      70.89        0.08     0.01   0.951
  sub_90657                 74.50       0.00       0.27       0.90      30.46      40.55      71.01        0.08     0.01   0.953
  sub_90658                 74.50       0.00       0.27       0.52      46.73      23.16      69.89        0.08     0.01   0.938
  sub_90659                 74.50       0.00       0.27       1.18      18.87      52.95      71.82        0.04     0.01   0.964
  sub_90662                 74.50       0.00       0.27       0.60      43.06      27.08      70.14        0.02     0.00   0.941
  sub_90663                 74.50       0.00       0.27       0.82      33.79      36.99      70.78        0.18     0.03   0.950
  sub_90664                 74.50       0.00       0.27       1.63       0.00      73.12      73.12        0.01     0.00   0.981
  sub_90665                 74.50       0.00       0.27       0.76      36.42      34.18      70.60        0.06     0.01   0.948
  sub_90669                 74.50       0.00       0.27       0.62      42.51      27.67      70.18        0.03     0.00   0.942
  sub_90670                 74.50       0.00       0.27       0.45      49.45      20.25      69.70        0.05     0.01   0.936
  sub_90671                 74.50       0.00       0.27       0.50      47.57      22.25      69.83        0.02     0.00   0.937
  sub_90672                 74.50       0.00       0.27       0.66      40.73      29.58      70.30        0.06     0.01   0.944
  sub_90673                 74.50       0.00       0.27       0.84      33.14      37.69      70.83        0.07     0.01   0.951
  sub_90674                 74.50       0.00       0.27       0.24      58.18      10.91      69.09        0.09     0.01   0.927
  sub_90675                 74.50       0.00       0.27       0.37      52.82      16.64      69.47        0.10     0.02   0.932
  sub_90676                 74.50       0.00       0.27       0.55      45.40      24.58      69.98        0.08     0.01   0.939
  sub_90677                 74.50       0.00       0.27       0.80      34.79      35.92      70.71        0.04     0.01   0.949
  sub_90678                 74.50       0.00       0.27       0.72      38.30      32.17      70.47        0.05     0.01   0.946
  sub_90679                 74.50       0.00       0.27       0.79      35.30      35.38      70.68        0.11     0.02   0.949
  sub_90680                 74.50       0.00       0.27       0.45      49.39      20.31      69.70        0.10     0.02   0.936
  sub_90681                 74.50       0.00       0.27       0.80      34.75      35.96      70.72        0.04     0.01   0.949
  sub_90682                 74.50       0.00       0.27       0.72      38.15      32.33      70.48        0.07     0.01   0.946
  sub_90683                 74.50       0.00       0.27       1.19      18.45      53.39      71.84        0.05     0.01   0.964
  sub_90684                 74.50       0.00       0.27       0.27      57.26      11.90      69.16        0.03     0.00   0.928
  sub_90685                 74.50       0.00       0.27       0.19      60.25       8.71      68.95        0.03     0.00   0.926
  sub_90686                 74.50       0.00       0.27       0.72      38.30      32.17      70.47        0.04     0.01   0.946
  sub_90688                 74.50       0.00       0.27       0.54      45.59      24.37      69.97        0.04     0.01   0.939
  sub_90689                 74.50       0.00       0.27       0.87      31.91      39.00      70.91        0.03     0.00   0.952
  sub_90690                 74.50       0.00       0.27       0.68      39.79      30.58      70.37        0.04     0.01   0.945
  sub_90691                 74.50       0.00       0.27       0.59      43.81      26.28      70.09        0.04     0.01   0.941
  sub_90692                 74.50       0.00       0.27       0.51      47.11      22.75      69.86        0.03     0.00   0.938
  sub_90693                 74.50       0.00       0.27       0.96      28.16      43.01      71.17        0.02     0.00   0.955
  sub_90694                 74.50       0.00       0.27       1.31      13.24      58.97      72.20        0.02     0.00   0.969
  sub_90695                 74.50       0.00       0.27       0.73      37.61      32.90      70.52        0.03     0.00   0.947
  sub_90696                 74.50       0.00       0.27       0.81      34.19      36.56      70.75        0.03     0.00   0.950
  sub_90697                 74.50       0.00       0.27       0.84      33.22      37.61      70.82        0.02     0.00   0.951
  sub_90698                 74.50       0.00       0.27       0.95      28.68      42.46      71.14        0.02     0.00   0.955
  sub_90699                 74.50       0.00       0.27       1.12      21.22      50.43      71.65        0.02     0.00   0.962
  sub_90700                 74.50       0.00       0.27       0.31      55.36      13.93      69.29        0.01     0.00   0.930
  sub_90701                 74.50       0.00       0.27       0.29      56.32      12.90      69.22        0.01     0.00   0.929
  sub_90702                 74.50       0.00       0.27       0.33      54.71      14.62      69.33        0.01     0.00   0.931
  sub_90703                 74.50       0.00       0.27       0.84      33.27      37.55      70.82        0.05     0.01   0.951
  sub_90704                 74.50       0.00       0.27       0.81      34.60      36.13      70.73        0.06     0.01   0.949
  sub_90705                 74.50       0.00       0.27       0.87      31.84      39.07      70.92        0.09     0.01   0.952
  sub_90706                 74.50       0.00       0.27       0.60      43.37      26.75      70.12        0.03     0.00   0.941
  sub_90707                 74.50       0.00       0.27       0.40      51.71      17.83      69.54        0.03     0.00   0.933
  sub_90708                 74.50       0.00       0.27       0.97      27.75      43.45      71.20        0.10     0.02   0.956
  sub_90709                 74.50       0.00       0.27       0.72      38.30      32.17      70.47        0.07     0.01   0.946
  sub_90710                 74.50       0.00       0.27       0.94      29.12      41.99      71.11        0.11     0.02   0.954
  sub_90724                 74.50       0.00       0.27       0.98      27.36      43.87      71.23        0.04     0.01   0.956
  sub_90725                 74.50       0.00       0.27       1.63       0.00      73.12      73.12        0.01     0.00   0.981
  sub_90726                 74.50       0.00       0.27       1.63       0.00      73.12      73.12        0.01     0.00   0.981
  sub_90727                 74.50       0.00       0.27       1.63       0.00      73.12      73.12        0.01     0.00   0.981
  sub_90728                 74.50       0.00       0.27       1.63       0.00      73.12      73.12        0.04     0.01   0.981
  sub_90729                 74.50       0.00       0.27       1.63       0.00      73.12      73.12        0.02     0.00   0.981
  sub_90730                 74.50       0.00       0.27       1.63       0.00      73.12      73.12        0.04     0.01   0.981
  sub_90731                 74.50       0.00       0.27       1.63       0.00      73.12      73.12        0.04     0.01   0.981
  sub_90732                 74.50       0.00       0.27       1.63       0.00      73.12      73.12        0.01     0.00   0.981
  sub_90733                 74.50       0.00       0.27       0.48      48.27      21.51      69.78        0.04     0.01   0.937
  
  
  ******************
  Node Depth Summary
  ******************
  
  ---------------------------------------------------------------------------------
                                 Average  Maximum  Maximum  Time of Max    Reported
                                   Depth    Depth      HGL   Occurrence   Max Depth
  Node                 Type       Meters   Meters   Meters  days hr:min      Meters
  ---------------------------------------------------------------------------------
  j_9006F              JUNCTION     0.28     2.20     1.84     0  02:59        1.87
  j_90334              JUNCTION     0.13     0.94     0.73     0  03:12        0.93
  j_90335              JUNCTION     0.21     1.16     0.75     0  03:01        1.08
  j_90336              JUNCTION     0.15     1.86     1.69     0  03:01        0.82
  j_90363              JUNCTION     0.22     1.08     0.73     0  03:14        1.08
  j_90364              JUNCTION     0.22     1.07     0.72     0  03:12        1.07
  j_90365              JUNCTION     0.22     1.07     0.72     0  03:12        1.07
  j_90366              JUNCTION     0.16     1.00     0.69     0  03:12        1.00
  j_90367              JUNCTION     0.28     1.18     0.69     0  03:12        1.18
  j_90368              JUNCTION     0.15     0.98     0.69     0  03:12        0.98
  j_90369              JUNCTION     0.15     1.05     0.75     0  03:01        0.96
  j_90370              JUNCTION     0.29     1.24     0.73     0  03:01        1.17
  j_90371              JUNCTION     0.32     1.23     0.67     0  03:01        1.18
  j_90372              JUNCTION     0.11     0.80     0.55     0  03:14        0.80
  j_90373              JUNCTION     0.25     1.02     0.55     0  03:12        1.01
  j_90374              JUNCTION     0.12     0.71     0.43     0  03:12        0.70
  j_90375              JUNCTION     0.16     0.77     0.43     0  03:14        0.77
  j_90376              JUNCTION     0.07     0.43     0.28     0  03:14        0.43
  j_90377              JUNCTION     0.07     0.45     0.28     0  03:12        0.45
  j_90378              JUNCTION     0.13     1.42     1.02     0  02:59        0.80
  j_90379              JUNCTION     0.08     1.85     1.60     0  02:59        0.65
  j_90380              JUNCTION     0.12     1.90     1.57     0  02:59        0.80
  j_90381              JUNCTION     0.19     0.99     0.54     0  02:59        0.91
  j_90382              JUNCTION     0.45     1.44     0.52     0  03:01        1.38
  j_90383              JUNCTION     0.41     1.40     0.58     0  03:01        1.34
  j_90384              JUNCTION     0.21     1.21     0.75     0  02:59        0.98
  j_90385              JUNCTION     0.14     1.26     0.89     0  02:59        0.89
  j_90386              JUNCTION     0.10     1.80     1.57     0  02:59        0.76
  j_90387              JUNCTION     0.10     1.77     1.57     0  02:59        0.82
  j_90388              JUNCTION     0.21     1.12     0.73     0  03:01        1.01
  j_90389              JUNCTION     0.33     1.37     0.76     0  03:01        1.22
  j_90390              JUNCTION     0.31     1.29     0.72     0  03:01        1.19
  j_90391              JUNCTION     0.19     1.12     0.88     0  03:01        0.86
  j_90392              JUNCTION     0.20     1.23     0.98     0  03:01        0.88
  j_90393              JUNCTION     0.16     1.49     1.30     0  03:01        0.84
  j_90394              JUNCTION     0.11     1.88     1.78     0  03:01        0.75
  j_90395              JUNCTION     0.11     1.90     1.82     0  03:01        0.74
  j_90396              JUNCTION     0.07     1.87     1.85     0  03:01        0.67
  j_90397              JUNCTION     0.40     1.40     0.63     0  03:01        1.32
  j_90398              JUNCTION     0.29     1.61     0.99     0  02:58        1.20
  j_90399              JUNCTION     0.13     1.80     1.49     0  02:58        0.89
  j_90400              JUNCTION     0.10     1.90     1.64     0  02:58        0.84
  j_90401              JUNCTION     0.12     1.92     1.61     0  02:58        0.87
  j_90402              JUNCTION     0.14     2.01     1.65     0  02:58        0.95
  j_90403              JUNCTION     0.10     1.90     1.65     0  02:58        0.84
  j_90404              JUNCTION     0.12     1.96     1.66     0  02:58        0.90
  j_90405              JUNCTION     0.25     1.59     1.03     0  02:58        1.15
  j_90406              JUNCTION     0.22     1.62     1.12     0  02:59        1.10
  j_90407              JUNCTION     0.17     2.05     1.64     0  02:58        1.03
  j_90408              JUNCTION     0.14     1.90     1.58     0  02:59        0.95
  j_90427              JUNCTION     0.30     1.09     0.66     0  02:55        1.05
  j_90428              JUNCTION     0.24     1.01     0.64     0  02:55        0.87
  j_90430              JUNCTION     0.11     0.29    -1.28     0  03:15        0.29
  j_90433              JUNCTION     0.14     0.53     0.16     0  03:12        0.53
  j_90434              JUNCTION     0.19     0.59     0.16     0  03:14        0.59
  j_90435              JUNCTION     0.11     0.39     0.02     0  03:15        0.39
  j_90436              JUNCTION     0.13     0.32    -0.14     0  03:15        0.32
  j_90437              JUNCTION     0.48     1.07    -0.29     0  03:15        1.07
  j_90438              JUNCTION     0.56     1.22    -0.13     0  03:12        1.22
  j_90439              JUNCTION     0.09     0.34     0.13     0  03:09        0.34
  j_90440              JUNCTION     0.11     0.51     0.35     0  03:12        0.50
  j_90441              JUNCTION     0.05     0.26     0.13     0  03:12        0.26
  j_90442              JUNCTION     0.40     1.08     0.44     0  03:14        1.08
  j_90443              JUNCTION     0.58     1.31     0.01     0  03:14        1.31
  j_90444              JUNCTION     0.47     1.38     0.27     0  03:01        1.30
  j_90445              JUNCTION     0.12     0.69     0.26     0  03:01        0.63
  j_90446              JUNCTION     0.09     0.86     0.50     0  03:01        0.56
  j_90447              JUNCTION     0.07     0.46     0.21     0  03:14        0.45
  j_90448              JUNCTION     0.08     1.88     1.61     0  03:01        0.57
  j_90449              JUNCTION     0.15     1.08     0.60     0  03:01        0.78
  j_90450              JUNCTION     0.13     1.03     0.56     0  03:01        0.77
  j_90451              JUNCTION     0.45     1.42     0.40     0  03:01        1.32
  j_90452              JUNCTION     0.13     1.08     0.66     0  02:59        0.82
  j_90453              JUNCTION     0.45     1.46     0.50     0  03:01        1.36
  j_90454              JUNCTION     0.16     2.15     1.68     0  02:58        1.00
  j_90455              JUNCTION     0.19     2.00     1.46     0  02:58        1.02
  j_90456              JUNCTION     0.24     1.66     1.00     0  02:58        1.08
  j_90457              JUNCTION     0.28     1.23     0.47     0  02:58        1.06
  j_90459              JUNCTION     0.40     1.18     0.13     0  03:12        1.18
  j_90460              JUNCTION     0.35     1.16     0.20     0  03:14        1.16
  j_90461              JUNCTION     0.46     1.28     0.20     0  03:13        1.28
  j_90462              JUNCTION     0.42     1.45     0.47     0  02:57        1.32
  j_90463              JUNCTION     0.30     1.53     0.80     0  02:57        1.25
  j_90464              JUNCTION     0.25     1.60     0.97     0  02:58        1.19
  j_90465              JUNCTION     0.21     1.77     1.23     0  02:58        1.12
  j_90466              JUNCTION     0.17     1.90     1.46     0  02:58        1.03
  j_90467              JUNCTION     0.19     1.91     1.49     0  02:59        1.05
  j_90468              JUNCTION     0.24     1.88     1.36     0  02:59        1.15
  j_90469              JUNCTION     0.24     1.72     1.16     0  02:59        1.18
  j_90470              JUNCTION     0.30     1.71     1.04     0  02:58        1.28
  j_90471              JUNCTION     0.31     1.74     1.04     0  02:58        1.31
  j_90477              JUNCTION     0.22     1.24     0.93     0  02:57        1.18
  j_90478              JUNCTION     0.31     1.29     0.88     0  02:57        1.26
  j_90479              JUNCTION     0.23     1.72     1.40     0  02:54        1.17
  j_90480              JUNCTION     0.19     1.26     1.01     0  02:54        1.12
  j_90481              JUNCTION     0.30     1.26     0.86     0  03:14        1.26
  j_90482              JUNCTION     0.34     1.31     0.86     0  03:14        1.30
  j_90483              JUNCTION     0.22     1.40     1.12     0  02:55        1.13
  j_90484              JUNCTION     0.17     1.30     1.10     0  02:55        1.02
  j_90485              JUNCTION     0.24     1.22     0.89     0  02:55        1.09
  j_90486              JUNCTION     0.33     1.17     0.71     0  02:55        1.16
  j_90487              JUNCTION     0.36     1.21     0.69     0  03:14        1.21
  j_90488              JUNCTION     0.41     1.26     0.66     0  03:12        1.26
  j_90489              JUNCTION     0.16     1.10     0.87     0  02:56        0.95
  j_90490              JUNCTION     0.22     1.08     0.77     0  03:14        1.08
  j_90491              JUNCTION     0.41     1.38     0.84     0  03:12        1.38
  j_90492              JUNCTION     0.47     1.43     0.81     0  02:57        1.42
  j_90493              JUNCTION     0.22     1.15     0.83     0  02:57        1.11
  j_90494              JUNCTION     0.55     1.72     0.98     0  02:57        1.51
  j_90495              JUNCTION     0.54     1.57     0.86     0  02:57        1.51
  j_90496              JUNCTION     0.23     1.47     1.15     0  02:56        1.11
  j_90497              JUNCTION     0.14     1.77     1.59     0  02:56        0.95
  j_90498              JUNCTION     0.32     1.34     0.86     0  02:56        1.21
  j_90499              JUNCTION     0.32     1.32     0.85     0  02:57        1.26
  j_90500              JUNCTION     0.26     1.46     1.08     0  02:57        1.21
  j_90501              JUNCTION     0.22     1.85     1.58     0  02:56        1.19
  j_90502              JUNCTION     0.19     1.85     1.62     0  02:56        1.16
  j_90503              JUNCTION     0.19     1.82     1.59     0  02:56        1.16
  j_90504              JUNCTION     0.24     1.84     1.56     0  02:56        1.21
  j_90505              JUNCTION     0.37     1.46     0.96     0  02:57        1.37
  j_90506              JUNCTION     0.40     1.52     1.01     0  02:57        1.43
  j_90507              JUNCTION     0.28     1.50     1.13     0  02:56        1.31
  j_90508              JUNCTION     0.34     1.51     1.06     0  02:57        1.37
  j_90509              JUNCTION     0.20     1.53     1.28     0  02:56        1.17
  j_90510              JUNCTION     0.25     1.42     1.11     0  02:57        1.29
  j_90511              JUNCTION     0.49     1.82     1.23     0  02:57        1.60
  j_90512              JUNCTION     0.44     1.91     1.37     0  02:57        1.55
  j_90513              JUNCTION     0.21     1.88     1.62     0  02:57        1.20
  j_90514              JUNCTION     0.22     1.92     1.60     0  02:57        1.14
  j_90515              JUNCTION     0.26     2.39     1.98     0  02:56        1.21
  j_90516              JUNCTION     0.24     1.97     1.53     0  02:57        1.05
  j_90517              JUNCTION     0.41     1.95     1.03     0  02:57        1.39
  j_90518              JUNCTION     0.41     1.86     0.98     0  02:57        1.43
  j_90519              JUNCTION     0.39     2.06     1.23     0  02:57        1.43
  j_90520              JUNCTION     0.18     1.83     1.48     0  02:58        0.97
  j_90521              JUNCTION     0.12     1.82     1.58     0  02:58        0.86
  j_90522              JUNCTION     0.15     1.82     1.55     0  02:58        0.90
  j_90523              JUNCTION     0.11     1.80     1.60     0  02:58        0.83
  j_90524              JUNCTION     0.38     1.91     1.46     0  02:57        1.53
  j_90525              JUNCTION     0.31     1.87     1.52     0  02:57        1.46
  j_90526              JUNCTION     0.25     1.85     1.59     0  02:56        1.37
  j_90527              JUNCTION     0.20     1.78     1.60     0  02:56        1.29
  j_90549              JUNCTION     0.11     0.41    -0.00     0  03:14        0.41
  j_90550              JUNCTION     0.62     1.15    -0.08     0  03:15        1.15
  j_90551              JUNCTION     0.03     0.08     0.13     0  02:52        0.08
  j_90553              JUNCTION     0.30     2.00     1.62     0  02:54        1.30
  j_90554              JUNCTION     0.26     1.97     1.63     0  02:54        1.26
  j_90555              JUNCTION     0.20     1.95     1.71     0  02:54        1.16
  j_90556              JUNCTION     0.29     2.00     1.63     0  02:54        1.29
  j_90557              JUNCTION     0.30     1.96     1.58     0  02:54        1.29
  j_90558              JUNCTION     0.53     1.72     1.01     0  02:57        1.56
  j_90559              JUNCTION     0.42     1.60     1.02     0  02:57        1.45
  j_90560              JUNCTION     0.41     1.53     0.97     0  02:57        1.43
  j_90561              JUNCTION     0.28     1.62     1.24     0  02:54        1.23
  j_90562              JUNCTION     0.33     1.39     0.94     0  02:57        1.30
  j_90563              JUNCTION     0.51     1.67     0.97     0  02:57        1.50
  j_90564              JUNCTION     0.60     1.76     0.95     0  02:57        1.59
  j_90565              JUNCTION     0.22     1.67     1.33     0  02:57        1.12
  j_90566              JUNCTION     0.15     1.82     1.62     0  02:57        0.98
  j_90567              JUNCTION     0.04     0.10     0.13     0  03:15        0.10
  j_90568              JUNCTION     0.62     1.23     0.12     0  03:14        1.23
  j_90569              JUNCTION     0.24     1.95     1.63     0  02:57        1.10
  j_90570              JUNCTION     0.10     1.70     1.62     0  02:57        0.86
  j_90571              JUNCTION     0.28     1.68     1.25     0  02:57        1.19
  j_90572              JUNCTION     0.64     1.79     0.93     0  02:57        1.60
  j_90573              JUNCTION     0.22     1.16     0.82     0  02:57        1.11
  j_90574              JUNCTION     0.59     1.96     1.16     0  02:57        1.51
  j_90575              JUNCTION     0.67     2.19     1.28     0  02:57        1.55
  j_90576              JUNCTION     0.62     2.55     1.63     0  02:57        1.40
  j_90577              JUNCTION     0.63     1.33     0.35     0  03:14        1.33
  j_90578              JUNCTION     0.61     1.31     0.36     0  03:01        1.30
  j_90579              JUNCTION     0.54     1.34     0.46     0  03:01        1.24
  j_90580              JUNCTION     0.13     1.85     1.72     0  02:57        0.96
  j_90581              JUNCTION     0.18     1.82     1.58     0  02:56        1.07
  j_90582              JUNCTION     0.18     1.86     1.62     0  02:56        1.06
  j_90583              JUNCTION     0.20     1.52     1.21     0  02:57        1.10
  j_90584              JUNCTION     0.24     1.65     1.30     0  02:57        1.18
  j_90585              JUNCTION     0.61     1.89     1.06     0  02:57        1.57
  j_90586              JUNCTION     0.62     1.79     0.97     0  02:57        1.65
  j_90587              JUNCTION     0.61     1.82     1.03     0  02:57        1.68
  j_90588              JUNCTION     0.25     1.44     1.08     0  02:57        1.27
  j_90589              JUNCTION     0.21     1.38     1.10     0  02:57        1.20
  j_90590              JUNCTION     0.20     1.35     1.10     0  02:57        1.17
  j_90591              JUNCTION     0.49     1.71     1.10     0  02:57        1.63
  j_90592              JUNCTION     0.53     1.73     1.06     0  02:57        1.67
  j_90593              JUNCTION     0.62     1.88     1.09     0  02:57        1.73
  j_90594              JUNCTION     0.54     1.81     1.11     0  02:57        1.67
  j_90595              JUNCTION     0.26     1.56     1.22     0  02:57        1.30
  j_90596              JUNCTION     0.24     1.53     1.21     0  02:57        1.29
  j_90597              JUNCTION     0.23     1.81     1.53     0  02:56        1.25
  j_90598              JUNCTION     0.21     1.87     1.62     0  02:56        1.22
  j_90599              JUNCTION     0.24     1.88     1.59     0  02:56        1.27
  j_90600              JUNCTION     0.20     1.93     1.71     0  02:56        1.20
  j_90601              JUNCTION     0.17     1.96     1.79     0  02:56        1.15
  j_90602              JUNCTION     0.25     1.67     1.40     0  02:56        1.36
  j_90603              JUNCTION     0.25     1.61     1.32     0  02:56        1.38
  j_90604              JUNCTION     0.29     1.58     1.22     0  02:56        1.43
  j_90605              JUNCTION     0.37     1.61     1.15     0  02:56        1.50
  j_90606              JUNCTION     0.36     1.72     1.29     0  02:56        1.52
  j_90607              JUNCTION     0.32     1.68     1.30     0  02:56        1.47
  j_90608              JUNCTION     0.29     1.65     1.31     0  02:56        1.43
  j_90609              JUNCTION     0.18     1.73     1.56     0  02:56        1.27
  j_90610              JUNCTION     0.22     1.64     1.42     0  02:56        1.32
  j_90611              JUNCTION     0.24     1.64     1.37     0  02:56        1.37
  j_90612              JUNCTION     0.21     1.66     1.45     0  02:56        1.31
  j_90613              JUNCTION     0.16     1.70     1.60     0  02:56        1.21
  j_90615              JUNCTION     0.07     0.29     0.00     0  03:14        0.29
  j_90616              JUNCTION     0.11     0.46     0.14     0  03:14        0.46
  j_90617              JUNCTION     0.08     0.47     0.24     0  03:14        0.47
  j_90618              JUNCTION     0.16     1.00     0.63     0  02:59        0.68
  j_90619              JUNCTION     0.64     1.30     0.30     0  03:15        1.30
  j_90620              JUNCTION     0.70     1.39     0.34     0  03:13        1.39
  j_90621              JUNCTION     0.65     1.48     0.50     0  03:00        1.44
  j_90623              JUNCTION     0.59     1.70     0.80     0  03:00        1.62
  j_90624              JUNCTION     0.49     1.60     0.81     0  03:00        1.51
  j_90625              JUNCTION     0.45     1.95     1.25     0  03:00        1.72
  j_90626              JUNCTION     0.54     1.89     1.07     0  03:00        1.75
  j_90627              JUNCTION     0.60     1.89     1.01     0  03:00        1.78
  j_90628              JUNCTION     0.24     1.68     1.27     0  03:00        1.68
  j_90629              JUNCTION     0.20     1.79     1.44     0  03:00        1.77
  j_90630              JUNCTION     0.10     1.73     1.54     0  03:01        0.55
  j_90631              JUNCTION     0.26     1.98     1.56     0  03:00        1.96
  j_90632              JUNCTION     0.27     2.07     1.62     0  02:59        1.95
  j_90633              JUNCTION     0.28     1.82     1.34     0  03:00        1.80
  j_90634              JUNCTION     0.62     2.13     1.25     0  03:00        1.98
  j_90635              JUNCTION     0.45     2.01     1.31     0  03:00        1.76
  j_90636              JUNCTION     0.36     2.13     1.56     0  03:00        1.60
  j_90637              JUNCTION     0.48     2.06     1.35     0  03:00        1.88
  j_90638              JUNCTION     0.31     1.94     1.46     0  03:00        1.72
  j_90639              JUNCTION     0.26     1.93     1.53     0  03:00        1.71
  j_90640              JUNCTION     0.18     1.78     1.49     0  03:00        1.77
  j_90641              JUNCTION     0.51     1.32     0.48     0  03:01        1.21
  j_90642              JUNCTION     0.41     1.22     0.49     0  03:01        1.10
  j_90643              JUNCTION     0.40     1.21     0.49     0  03:01        1.09
  j_90644              JUNCTION     0.09     1.14     0.99     0  03:01        0.52
  j_90645              JUNCTION     0.08     1.80     1.87     0  02:59        1.04
  j_90646              JUNCTION     0.16     1.90     1.80     0  02:58        1.22
  j_90647              JUNCTION     0.09     1.70     1.73     0  02:59        1.08
  j_90648              JUNCTION     0.19     1.92     1.63     0  03:00        1.44
  j_90649              JUNCTION     0.17     1.83     1.62     0  02:58        1.34
  j_90650              JUNCTION     0.26     1.93     1.55     0  03:00        1.56
  j_90651              JUNCTION     0.26     2.16     1.72     0  03:00        1.50
  j_90652              JUNCTION     0.25     2.22     1.80     0  03:00        1.55
  j_90653              JUNCTION     0.15     2.05     1.81     0  02:57        1.52
  j_90654              JUNCTION     0.44     2.19     1.59     0  02:59        1.92
  j_90655              JUNCTION     0.48     2.14     1.48     0  03:00        1.93
  j_90656              JUNCTION     0.49     2.13     1.44     0  03:00        1.90
  j_90657              JUNCTION     0.04     0.24     0.47     0  03:13        0.24
  j_90658              JUNCTION     0.06     0.34     0.47     0  03:14        0.34
  j_90659              JUNCTION     0.07     0.43     0.45     0  03:13        0.42
  j_90662              JUNCTION     0.08     0.32    -0.00     0  03:12        0.32
  j_90663              JUNCTION     0.30     1.46     1.03     0  02:57        1.30
  j_90664              JUNCTION     0.18     1.90     1.63     0  03:00        1.41
  j_90665              JUNCTION     0.62     1.31     0.34     0  03:13        1.31
  j_90669              JUNCTION     0.31     1.83     1.60     0  03:00        1.44
  j_90670              JUNCTION     0.33     1.87     1.62     0  03:00        1.47
  j_90671              JUNCTION     0.34     1.86     1.60     0  03:00        1.49
  j_90672              JUNCTION     0.34     2.10     1.64     0  02:59        1.88
  j_90673              JUNCTION     0.41     2.16     1.63     0  02:59        1.95
  j_90674              JUNCTION     0.44     2.24     1.64     0  02:59        1.94
  j_90675              JUNCTION     0.29     1.85     1.63     0  02:59        1.57
  j_90676              JUNCTION     0.32     1.83     1.59     0  02:59        1.51
  j_90677              JUNCTION     0.37     1.87     1.58     0  02:59        1.52
  j_90678              JUNCTION     0.20     1.67     1.57     0  02:59        1.34
  j_90679              JUNCTION     0.15     1.58     1.56     0  02:59        1.27
  j_90680              JUNCTION     0.31     1.92     1.62     0  02:59        1.92
  j_90681              JUNCTION     0.34     2.00     1.62     0  02:59        1.93
  j_90682              JUNCTION     0.11     1.60     1.57     0  02:59        1.59
  j_90683              JUNCTION     0.36     2.05     1.60     0  02:59        1.95
  j_90684              JUNCTION     0.28     1.95     1.59     0  02:59        1.87
  j_90685              JUNCTION     0.09     1.72     1.83     0  02:59        1.41
  j_90686              JUNCTION     0.31     2.04     1.64     0  02:59        1.91
  j_90688              JUNCTION     0.03     0.08     0.53     0  03:00        0.08
  j_90689              JUNCTION     0.09     0.23    -0.07     0  03:15        0.23
  j_90690              JUNCTION     0.08     0.21    -0.04     0  03:15        0.21
  j_90691              JUNCTION     0.04     0.10     0.20     0  03:00        0.10
  j_90692              JUNCTION     0.03     0.06     0.26     0  03:00        0.06
  j_90693              JUNCTION     0.03     0.24     0.27     0  03:15        0.24
  j_90694              JUNCTION     0.04     0.17     0.23     0  03:15        0.17
  j_90695              JUNCTION     0.03     0.06     0.56     0  03:00        0.06
  j_90696              JUNCTION     0.05     0.18     0.18     0  03:15        0.18
  j_90697              JUNCTION     0.06     0.22     0.15     0  03:15        0.22
  j_90698              JUNCTION     0.07     0.23     0.11     0  03:15        0.23
  j_90699              JUNCTION     0.07     0.23     0.05     0  03:15        0.23
  j_90700              JUNCTION     0.02     0.05     0.55     0  03:00        0.05
  j_90701              JUNCTION     0.02     0.04     0.54     0  03:00        0.04
  j_90702              JUNCTION     0.02     0.04     0.54     0  03:00        0.04
  j_90703              JUNCTION     0.36     1.33     0.85     0  03:13        1.33
  j_90704              JUNCTION     0.18     1.29     1.07     0  02:55        1.06
  j_90705              JUNCTION     0.20     1.84     1.58     0  04:12        1.11
  j_90706              JUNCTION     0.44     1.72     1.18     0  02:57        1.56
  j_90707              JUNCTION     0.31     1.59     1.21     0  02:57        1.41
  j_90708              JUNCTION     0.16     1.35     1.24     0  02:57        1.15
  j_90709              JUNCTION     0.21     1.52     1.32     0  02:57        1.28
  j_90710              JUNCTION     0.15     1.41     1.36     0  02:57        1.15
  j_90724              JUNCTION     0.34     1.88     1.62     0  03:00        1.49
  j_90725              JUNCTION     0.14     1.77     1.77     0  03:00        1.23
  j_90726              JUNCTION     0.11     1.72     1.77     0  03:00        1.18
  j_90727              JUNCTION     0.10     1.67     1.77     0  03:00        1.13
  j_90728              JUNCTION     0.12     1.71     1.77     0  03:00        1.17
  j_90729              JUNCTION     0.08     1.54     1.77     0  02:03        1.00
  j_90730              JUNCTION     0.19     1.80     1.72     0  03:01        1.31
  j_90731              JUNCTION     0.11     1.67     1.77     0  03:00        1.13
  j_90732              JUNCTION     0.08     1.62     1.77     0  02:03        1.08
  j_90733              JUNCTION     0.23     1.78     1.64     0  03:01        1.36
  j_91272              JUNCTION     0.04     0.52     0.69     0  03:12        0.52
  j_91273              JUNCTION     0.01     0.22     0.69     0  03:12        0.22
  j_91274              JUNCTION     0.03     0.46     0.69     0  03:14        0.46
  j_91275              JUNCTION     0.01     0.22     0.69     0  03:13        0.22
  j_91276              JUNCTION     0.03     0.41     0.69     0  03:13        0.41
  j_91277              JUNCTION     0.01     0.18     0.69     0  03:14        0.17
  j_91278              JUNCTION     0.02     0.34     0.69     0  03:13        0.33
  j_91279              JUNCTION     0.01     0.19     0.69     0  03:13        0.18
  j_91292              JUNCTION     0.03     2.06     2.05     0  03:00        0.43
  j_91293              JUNCTION     0.10     0.66     0.43     0  03:12        0.66
  j_91294              JUNCTION     0.01     0.12     0.43     0  03:13        0.11
  j_90552              OUTFALL      0.00     0.00    -1.29     0  00:00        0.00
  j_90431              OUTFALL      0.11     0.29    -1.32     0  03:15        0.29
  
  
  *******************
  Node Inflow Summary
  *******************
  
  -------------------------------------------------------------------------------------------------
                                  Maximum  Maximum                  Lateral       Total        Flow
                                  Lateral    Total  Time of Max      Inflow      Inflow     Balance
                                   Inflow   Inflow   Occurrence      Volume      Volume       Error
  Node                 Type           CMS      CMS  days hr:min    10^6 ltr    10^6 ltr     Percent
  -------------------------------------------------------------------------------------------------
  j_9006F              JUNCTION     0.004    0.038     0  02:59      0.0273      0.0301       0.000
  j_90334              JUNCTION     0.013    0.013     0  02:52      0.0841      0.0841       0.000
  j_90335              JUNCTION     0.021    0.021     0  02:52       0.134       0.134       0.000
  j_90336              JUNCTION     0.003    0.044     0  02:59      0.0222       0.115       0.000
  j_90363              JUNCTION     0.024    0.024     0  02:52        0.15        0.15       0.000
  j_90364              JUNCTION     0.006    0.047     0  02:47      0.0395       0.282      -0.352
  j_90365              JUNCTION     0.001    0.008     0  02:46     0.00658     0.00839       0.640
  j_90366              JUNCTION     0.008    0.008     0  02:52      0.0498      0.0498       0.000
  j_90367              JUNCTION     0.007    0.079     0  03:15      0.0462       0.392      -0.080
  j_90368              JUNCTION     0.000    0.063     0  03:15           0       0.027       0.539
  j_90369              JUNCTION     0.018    0.018     0  02:52       0.114       0.114       0.000
  j_90370              JUNCTION     0.008    0.048     0  02:55      0.0509       0.298      -0.250
  j_90371              JUNCTION     0.011    0.118     0  02:57      0.0677       0.852      -0.044
  j_90372              JUNCTION     0.004    0.008     0  02:51      0.0271      0.0273       0.000
  j_90373              JUNCTION     0.008    0.080     0  03:10      0.0473       0.219      -0.031
  j_90374              JUNCTION     0.000    0.036     0  03:16           0      0.0275       0.000
  j_90375              JUNCTION     0.009    0.090     0  03:10      0.0589       0.207       0.009
  j_90376              JUNCTION     0.002    0.016     0  03:12     0.00981      0.0418       0.000
  j_90377              JUNCTION     0.008    0.097     0  03:12      0.0493       0.213      -0.169
  j_90378              JUNCTION     0.009    0.029     0  03:00      0.0544       0.136       0.000
  j_90379              JUNCTION     0.013    0.035     0  02:59      0.0805       0.081      -0.460
  j_90380              JUNCTION     0.014    0.018     0  02:59       0.093      0.0931       0.000
  j_90381              JUNCTION     0.009    0.024     0  02:59      0.0558       0.149       0.623
  j_90382              JUNCTION     0.010    0.243     0  03:12      0.0663        1.99      -0.022
  j_90383              JUNCTION     0.009    0.209     0  03:12       0.057        1.78      -0.023
  j_90384              JUNCTION     0.005    0.030     0  02:59      0.0313       0.158       0.451
  j_90385              JUNCTION     0.007    0.025     0  02:59      0.0452       0.127       0.276
  j_90386              JUNCTION     0.013    0.026     0  02:59      0.0812      0.0815      -0.477
  j_90387              JUNCTION     0.008    0.016     0  02:59      0.0532      0.0533       0.000
  j_90388              JUNCTION     0.005    0.016     0  02:59      0.0333       0.087       0.940
  j_90389              JUNCTION     0.007    0.157     0  02:53      0.0437        1.23       0.000
  j_90390              JUNCTION     0.004    0.114     0  02:52      0.0234       0.877      -0.027
  j_90391              JUNCTION     0.004    0.055     0  03:16      0.0292       0.305       0.099
  j_90392              JUNCTION     0.010    0.051     0  03:16      0.0614       0.278       0.059
  j_90393              JUNCTION     0.016    0.041     0  03:00       0.104       0.219      -0.044
  j_90394              JUNCTION     0.005    0.047     0  03:00       0.032      0.0915       0.046
  j_90395              JUNCTION     0.006    0.048     0  03:01      0.0389      0.0578      -0.067
  j_90396              JUNCTION     0.003    0.036     0  03:01      0.0157      0.0168      -0.263
  j_90397              JUNCTION     0.007    0.188     0  02:52      0.0447        1.57      -0.012
  j_90398              JUNCTION     0.008    0.089     0  02:59      0.0507        0.31      -0.271
  j_90399              JUNCTION     0.008    0.035     0  02:57      0.0531      0.0835       0.976
  j_90400              JUNCTION     0.005    0.072     0  02:58      0.0337       0.117      -0.056
  j_90401              JUNCTION     0.009    0.066     0  02:58      0.0538       0.154      -0.012
  j_90402              JUNCTION     0.009    0.031     0  03:15       0.054      0.0899       0.000
  j_90403              JUNCTION     0.005    0.073     0  02:58      0.0316      0.0994      -0.152
  j_90404              JUNCTION     0.008    0.043     0  02:58      0.0513       0.101       0.730
  j_90405              JUNCTION     0.009    0.056     0  02:59      0.0554       0.203       0.028
  j_90406              JUNCTION     0.008    0.068     0  02:58      0.0511        0.19      -0.353
  j_90407              JUNCTION     0.006    0.062     0  02:58      0.0397       0.108      -0.285
  j_90408              JUNCTION     0.017    0.054     0  02:58       0.106       0.144       0.160
  j_90427              JUNCTION     0.017    0.090     0  03:14        0.11       0.282       0.000
  j_90428              JUNCTION     0.010    0.100     0  03:13      0.0629        0.25      -0.108
  j_90430              JUNCTION     0.005    1.490     0  03:15       0.034        8.71       0.004
  j_90433              JUNCTION     0.003    0.003     0  02:46       0.017       0.017       0.000
  j_90434              JUNCTION     0.006    0.091     0  03:12      0.0388       0.239       0.275
  j_90435              JUNCTION     0.009    0.101     0  03:12      0.0594       0.298      -0.003
  j_90436              JUNCTION     0.006    0.084     0  03:15      0.0346       0.423       0.000
  j_90437              JUNCTION     0.012    1.486     0  03:12      0.0772        8.68       0.003
  j_90438              JUNCTION     0.010    1.289     0  03:12      0.0609        7.88       0.005
  j_90439              JUNCTION     0.006    0.131     0  03:12      0.0354       0.362       0.000
  j_90440              JUNCTION     0.017    0.117     0  03:14       0.107       0.302       0.035
  j_90441              JUNCTION     0.008    0.008     0  02:54      0.0497      0.0497      -0.096
  j_90442              JUNCTION     0.017    0.312     0  03:00       0.113        1.82       0.137
  j_90443              JUNCTION     0.025    1.145     0  03:13       0.157        7.44      -0.008
  j_90444              JUNCTION     0.010    0.352     0  03:13      0.0625        2.68      -0.015
  j_90445              JUNCTION     0.009    0.055     0  03:15      0.0544        0.19       0.270
[...]
  c_904561                    0.44      0.44      0.66      0.01         0.01
  c_904571                    0.63      0.69      0.63      1.22         0.62
  c_904591                    0.29      0.29      0.64      0.01         0.01
  c_904592                    0.70      0.70      0.91      2.27         0.01
  c_904611                    1.04      1.04      1.15      0.01         0.01
  c_904612                    0.70      0.70      0.92      0.72         0.01
  c_904621                    0.74      0.78      0.74      1.13         0.74
  c_904641                    0.89      0.89      1.19      0.01         0.01
  c_904651                    0.72      0.72      0.89      0.01         0.01
  c_904661                    0.46      0.46      0.72      0.01         0.01
  c_904662                    0.29      0.29      0.46      0.01         0.01
  c_904671                    0.29      0.29      0.54      0.01         0.01
  c_904681                    0.49      0.49      0.77      0.01         0.01
  c_904691                    0.77      0.77      0.82      0.01         0.01
  c_904701                    0.85      0.85      1.15      0.01         0.01
  c_904711                    0.73      0.73      0.78      0.01         0.01
  c_904791                    0.77      0.77      0.99      0.01         0.01
  c_904801                    0.64      0.64      0.77      0.01         0.01
  c_904811                    0.64      0.64      0.80      0.01         0.01
  c_904821                    0.99      0.99      1.10      0.01         0.01
  c_904822                    0.99      0.99      1.10      0.01         0.01
  c_904831                    0.72      0.72      0.91      0.01         0.01
  c_904851                    0.56      0.56      0.79      0.01         0.01
  c_904861                    1.06      1.06      1.24      0.30         0.01
  c_904862                    0.75      0.75      0.94      0.01         0.01
  c_904871                    1.05      1.05      1.60      0.01         0.01
  c_904881                    1.60      1.60      2.03      0.01         0.01
  c_904882                    0.82      0.85      0.82      0.95         0.81
  c_904891                    0.42      0.42      0.65      0.01         0.01
  c_904901                    0.50      0.50      0.65      0.01         0.01
  c_904921                    1.76      1.76      1.95      0.83         0.87
  c_904922                    0.65      0.65      1.29      0.01         0.01
  c_904931                    0.68      0.68      0.78      0.01         0.01
  c_904951                    2.52      2.52      2.66      0.03         0.01
  c_904952                    3.46      3.47      3.56      0.48         0.38
  c_904961                    0.65      0.65      1.27      0.01         0.01
  c_904971                    0.38      0.38      0.69      0.01         0.01
  c_904981                    0.38      0.38      0.76      0.01         0.01
  c_904982                    0.65      0.65      0.85      0.01         0.01
  c_904991                    1.11      1.12      1.11      1.28         0.88
  c_905001                    0.81      0.81      1.12      0.01         0.01
  c_905011                    0.63      0.63      0.77      0.01         0.01
  c_905021                    0.60      0.60      0.63      0.01         0.01
  c_905031                    0.59      0.59      0.63      0.01         0.01
  c_905041                    0.58      0.58      0.60      0.01         0.01
  c_905042                    0.59      0.59      0.65      0.01         0.01
  c_905051                    1.51      1.51      2.24      0.01         0.01
  c_905061                    1.51      1.51      1.64      0.89         0.01
  c_905071                    0.87      0.87      1.64      0.01         0.01
  c_905072                    0.60      0.60      0.87      0.01         0.01
  c_905081                    1.16      1.16      1.47      0.01         0.01
  c_905091                    0.62      0.62      0.97      0.01         0.01
  c_905101                    0.58      0.58      0.73      0.01         0.01
  c_905111                    0.73      0.73      1.12      0.01         0.01
  c_905121                    2.09      2.09      2.29      0.01         0.01
  c_905131                    0.61      0.61      1.44      0.01         0.01
  c_905141                    0.62      0.62      0.77      0.01         0.01
  c_905151                    0.40      0.40      0.62      0.01         0.01
  c_905152                    0.61      0.61      0.69      0.30         0.30
  c_905161                    0.55      0.74      0.55      1.44         0.55
  c_905171                    1.19      1.19      1.36      0.01         0.01
  c_905172                    0.77      0.77      0.78      0.78         0.72
  c_905181                    0.39      0.39      0.61      0.01         0.01
  c_905182                    1.02      1.02      1.22      1.44         0.01
  c_905191                    0.78      0.78      0.95      0.01         0.01
  c_905192                    1.12      1.12      1.22      0.01         0.05
  c_905201                    0.30      0.30      0.35      0.01         0.01
  c_905211                    0.28      0.28      0.30      0.01         0.01
  c_905221                    0.28      0.28      0.29      0.01         0.01
  c_905231                    0.27      0.27      0.28      0.01         0.01
  c_905241                    1.54      1.54      2.16      0.01         0.01
  c_905251                    0.93      0.93      1.54      0.01         0.01
  c_905261                    0.70      0.70      0.93      0.01         0.01
  c_905271                    0.61      0.61      0.70      0.01         0.01
  c_905521                    0.01      0.01      0.01      2.01         0.01
  c_905541                    0.79      0.79      0.91      0.01         0.01
  c_905551                    0.66      0.66      0.72      0.01         0.01
  c_905561                    0.88      0.88      0.91      0.01         0.01
  c_905571                    0.88      0.88      0.88      2.50         0.09
  c_905572                    0.84      0.84      0.91      0.01         0.01
  c_905581                    0.85      0.85      1.59      0.01         0.01
  c_905591                    1.04      1.04      1.76      0.01         0.01
  c_905601                    1.78      1.78      1.89      0.01         0.02
  c_905602                    0.77      0.77      1.78      0.01         0.01
  c_905611                    0.90      0.90      0.99      0.01         0.01
  c_905621                    0.90      0.90      1.13      0.01         0.01
  c_905622                    0.77      0.77      1.13      0.01         0.01
  c_905631                    1.05      1.05      1.33      0.01         0.01
  c_905632                    1.64      1.64      1.70      5.22         0.06
  c_905641                    0.85      0.85      1.10      0.01         0.01
  c_905651                    0.74      0.74      1.15      0.01         0.01
  c_905661                    0.48      0.48      0.63      0.01         0.01
  c_905681                    0.01      0.01      0.01      0.27         0.01
  c_905691                    0.45      0.45      0.69      0.01         0.01
  c_905701                    0.30      0.30      0.38      0.01         0.01
  c_905711                    0.61      0.61      0.88      0.01         0.01
  c_905721                    1.37      1.37      1.43      0.77         0.78
  c_905722                    0.93      0.93      1.64      0.01         0.01
  c_905731                    0.68      0.68      0.69      0.63         0.54
  c_905732                    0.72      0.72      1.28      0.01         0.01
  c_905741                    3.56      3.56      3.91      0.04         0.04
  c_905751                    3.73      3.73      4.76      0.01         0.01
  c_905752                    1.64      1.64      1.86      0.72         0.74
  c_905761                    0.33      0.44      0.33      0.89         0.32
  c_905771                    0.31      0.33      0.32      0.58         0.30
  c_905781                    1.52      1.52      1.72      0.01         0.01
  c_905791                    0.99      0.99      1.52      0.01         0.01
  c_905811                    0.32      0.32      0.58      0.01         0.01
  c_905821                    0.58      0.58      0.58      1.39         0.01
  c_905831                    0.56      0.56      0.63      0.01         0.01
  c_905841                    0.58      0.58      0.73      0.01         0.01
  c_905851                    1.41      1.41      1.79      0.30         0.31
  c_905852                    0.63      0.63      1.34      0.01         0.01
  c_905861                    1.34      1.48      1.34      5.69         1.34
  c_905862                    0.73      0.73      1.12      0.01         0.01
  c_905871                    1.36      1.36      1.48      0.51         0.45
  c_905881                    0.82      0.82      1.75      0.01         0.01
  c_905891                    0.66      0.66      0.82      0.01         0.01
  c_905892                    0.60      0.60      0.66      0.01         0.01
  c_905901                    0.61      0.61      1.16      0.01         0.01
  c_905902                    0.61      0.61      0.63      0.01         0.01
  c_905921                    2.56      2.56      2.91      0.01         0.01
  c_905931                    1.36      1.43      1.36      5.25         1.34
  c_905941                    0.96      0.96      1.43      0.01         0.01
  c_905942                    2.66      2.66      2.91      3.08         0.01
  c_905951                    0.80      0.80      1.29      0.01         0.01
  c_905961                    0.75      0.75      1.27      0.01         0.01
  c_905971                    0.69      0.69      0.80      0.01         0.01
  c_905981                    0.64      0.64      0.75      0.01         0.01
  c_905982                    0.64      0.64      0.69      0.01         0.01
  c_905991                    0.69      0.69      0.71      0.01         0.01
  c_906001                    0.61      0.61      0.69      0.01         0.01
  c_906011                    0.55      0.55      0.61      0.01         0.01
  c_906031                    0.72      0.72      0.75      0.01         0.01
  c_906041                    0.71      0.71      0.91      0.01         0.01
  c_906051                    0.88      0.88      1.34      0.01         0.01
  c_906052                    0.75      0.75      1.00      0.01         0.01
  c_906061                    1.06      1.06      1.34      0.01         0.01
  c_906071                    0.99      0.99      1.19      0.01         0.01
  c_906081                    0.87      0.87      0.99      0.01         0.01
  c_906082                    0.77      0.77      0.87      0.01         0.01
  c_906091                    0.60      0.60      0.72      0.01         0.01
  c_906101                    0.60      0.60      0.65      0.01         0.01
  c_906111                    0.74      0.74      1.01      0.01         0.01
  c_906112                    0.65      0.65      0.71      0.01         0.01
  c_906121                    0.65      0.65      0.74      0.01         0.01
  c_906131                    0.55      0.55      0.65      0.01         0.01
  c_906132                    0.55      0.55      0.61      0.01         0.01
  c_906161                    0.01      0.18      0.01      0.25         0.01
  c_906171                    0.18      0.20      0.18      0.23         0.18
  c_906181                    0.19      0.19      0.28      0.01         0.01
  c_906191                    0.01      0.01      0.01      0.28         0.01
  c_906192                    0.30      0.32      0.30      0.68         0.28
  c_906201                    0.83      0.83      0.87      5.75         0.01
  c_906202                    0.28      0.28      0.62      0.01         0.01
  c_906211                    0.89      0.89      1.06      0.25         0.25
  c_906231                    0.74      0.74      0.89      0.25         0.25
  c_906241                    2.72      2.72      3.60      0.01         0.01
  c_906261                    2.26      2.26      3.22      0.01         0.01
  c_906271                    3.22      3.22      3.42      0.01         0.03
  c_906272                    0.73      0.75      0.74      1.01         0.68
  c_906281                    0.74      0.74      1.04      0.01         0.01
  c_906291                    0.60      0.60      0.74      0.01         0.01
  c_906301                    0.23      0.23      0.23      0.01         0.01
  c_906321                    0.33      0.33      0.60      0.01         0.01
  c_906322                    0.80      0.81      0.80      2.71         0.76
  c_906331                    0.87      0.87      0.96      0.01         0.01
  c_906341                    0.96      0.96      1.62      0.01         0.01
  c_906342                    0.67      0.67      0.68      0.52         0.50
  c_906351                    1.92      1.92      2.26      0.01         0.01
  c_906352                    2.29      2.29      2.37      0.01         0.01
  c_906361                    1.21      1.21      2.13      0.01         0.01
  c_906371                    0.44      0.44      0.81      0.01         0.01
  c_906381                    0.98      0.98      1.31      0.01         0.01
  c_906391                    0.75      0.75      1.02      0.01         0.01
  c_906401                    0.43      0.43      0.51      0.01         0.01
  c_906402                    0.51      0.51      0.68      0.01         0.01
  c_906411                    0.85      0.85      0.99      0.01         0.01
  c_906421                    0.54      0.54      0.85      0.01         0.01
  c_906431                    0.51      0.51      0.54      0.01         0.04
  c_906441                    0.22      0.22      0.23      0.01         0.01
  c_906461                    0.26      0.26      0.49      0.01         0.01
  c_906471                    0.29      0.29      0.43      0.01         0.01
  c_906481                    0.54      0.54      0.78      0.01         0.01
  c_906491                    0.36      0.36      0.50      0.01         0.01
  c_906492                    0.45      0.46      0.48      0.02         0.03
  c_906501                    0.43      0.43      0.73      0.01         0.01
  c_906511                    0.87      0.87      1.46      0.01         0.01
  c_906521                    0.78      0.78      0.87      0.01         0.01
  c_906531                    0.41      0.41      0.78      0.01         0.01
  c_906541                    0.59      0.59      0.73      0.01         0.01
  c_906561                    0.66      0.66      0.73      1.78         0.01
  c_906562                    0.43      0.44      0.44      0.36         0.31
  c_906563                    0.73      0.73      1.10      0.01         0.01
  c_906581                    0.01      0.01      0.20      0.01         0.01
  c_906591                    0.23      0.23      0.24      0.01         0.01
  c_906592                    0.20      0.20      0.23      0.01         0.01
  c_906631                    1.04      1.06      1.04      2.17         0.77
  c_906641                    0.50      0.50      0.50      0.01         0.18
  c_906651                    4.45      4.45      4.45      0.40         0.83
  c_906701                    0.62      0.62      0.72      0.01         0.01
  c_906731                    2.74      2.75      2.74      2.16         1.71
  c_906741                    0.74      0.75      0.74      3.55         0.70
  c_906742                    0.45      0.45      0.57      0.01         0.01
  c_906751                    0.44      0.44      0.47      0.23         0.24
  c_906761                    0.54      0.54      0.66      0.23         0.01
  c_906771                    0.66      0.66      0.85      0.01         0.01
  c_906772                    0.78      0.78      0.85      0.01         0.01
  c_906781                    0.76      0.76      2.69      0.01         0.01
  c_906791                    0.45      0.45      0.76      0.01         0.01
  c_906801                    0.29      0.29      0.37      0.01         0.01
  c_906811                    0.41      0.41      0.47      0.01         0.03
  c_906821                    0.43      0.43      2.41      0.01         0.01
  c_906831                    0.28      0.28      0.29      0.01         0.02
  c_906832                    0.38      0.38      0.50      0.01         0.01
  c_906841                    2.17      2.17      2.26      0.01         0.04
  c_906851                    0.30      0.30      0.42      0.01         0.01
  c_906861                    0.55      0.55      0.67      0.01         0.01
  c_906862                    0.46      0.46      0.55      0.01         0.01
  c_907031                    1.15      1.15      1.35      0.01         0.01
  c_907032                    1.00      1.00      1.76      0.01         0.01
  c_907033                    1.35      1.35      1.62      0.01         0.01
  c_907041                    0.59      0.59      0.64      0.01         0.01
  c_907042                    0.56      0.56      0.59      0.01         0.01
  c_907051                    0.66      0.66      0.92      0.01         0.01
  c_907061                    2.13      2.13      2.49      0.01         0.01
  c_907062                    2.13      2.13      2.56      0.01         0.01
  c_907071                    1.29      1.29      1.35      0.01         0.09
  c_907081                    0.66      0.66      1.07      0.01         0.01
  c_907091                    0.91      0.91      2.06      0.01         0.01
  c_907101                    0.62      0.62      0.91      0.01         0.01
  c_907241                    0.72      0.72      0.79      0.01         0.01
  c_907242                    0.78      0.79      0.78      0.85         0.31
  c_907251                    0.43      0.43      1.33      0.01         0.01
  c_907261                    0.35      0.35      0.43      0.01         0.01
  c_907271                    0.32      0.32      0.35      0.01         0.01
  c_907281                    0.28      0.28      0.35      0.01         0.01
  c_907291                    0.25      0.25      0.35      0.01         0.01
  c_907301                    0.35      0.35      0.64      0.01         0.01
  c_907311                    0.31      0.31      0.64      0.01         0.01
  c_907321                    0.27      0.27      0.31      0.01         0.01
  c_907331                    0.64      0.64      1.01      0.01         0.01
  c_907332                    1.01      1.01      1.31      0.01         0.01
  c_912721                    0.24      0.25      0.24      0.07         0.01
  c_912731                    0.01      0.01      0.19      0.01         0.01
  c_912741                    0.22      0.24      0.25      0.06         0.02
  c_912751                    0.01      0.01      0.16      0.01         0.01
  c_912761                    0.21      0.21      0.24      0.01         0.01
  c_912771                    0.01      0.01      0.14      0.01         0.01
  c_912781                    0.16      0.16      0.21      0.01         0.01
  c_912791                    0.01      0.01      0.14      0.01         0.01
  c_912931                    0.25      0.25      0.71      0.01         0.01
  c_912932                    0.71      0.71      0.76      0.01         0.02
  c_912941                    0.01      0.01      0.08      0.01         0.01
  

  Analysis begun on:  Sat May 28 10:48:26 2022
  Analysis ended on:  Sat May 28 10:48:45 2022
  Total elapsed time: 00:00:19