
  EPA STORM WATER MANAGEMENT MODEL - VERSION 5.1 (Build 5.1.015)
  --------------------------------------------------------------

  WARNING 04: minimum elevation drop used for Conduit c_903642
  WARNING 04: minimum elevation drop used for Conduit c_903651
  WARNING 04: minimum elevation drop used for Conduit c_903672
  WARNING 04: minimum elevation drop used for Conduit c_905571
  WARNING 04: minimum elevation drop used for Conduit c_905632
  WARNING 04: minimum elevation drop used for Conduit c_905821
  WARNING 04: minimum elevation drop used for Conduit c_905861
  WARNING 04: minimum elevation drop used for Conduit c_905931
  WARNING 04: minimum elevation drop used for Conduit c_906201
  WARNING 04: minimum elevation drop used for Conduit c_906322
  WARNING 04: minimum elevation drop used for Conduit c_906631
  WARNING 04: minimum elevation drop used for Conduit c_906641
  WARNING 04: minimum elevation drop used for Conduit c_906651
  WARNING 04: minimum elevation drop used for Conduit c_906731
  WARNING 04: minimum elevation drop used for Conduit c_906741
  WARNING 04: minimum elevation drop used for Conduit c_907242
  
  *********************
  Rainfall File Summary
  *********************
  Station    First        Last         Recording   Periods    Periods    Periods
  ID         Date         Date         Frequency  w/Precip    Missing    Malfunc.
  -------------------------------------------------------------------------------
  R1         01/01/2019   01/01/2019       5 min        40          0          0
  R1         01/01/2019   01/01/2019       5 min        40          0          0
  R1         01/01/2019   01/01/2019       5 min        40          0          0

  
  *********************************************************
  NOTE: The summary statistics displayed in this report are
  based on results found at every computational time step,  
  not just on results from each reporting time step.
  *********************************************************
  
  ****************
  Analysis Options
  ****************
  Flow Units ............... CMS
  Process Models:
    Rainfall/Runoff ........ YES
    RDII ................... NO
    Snowmelt ............... NO
    Groundwater ............ NO
    Flow Routing ........... YES
    Ponding Allowed ........ NO
    Water Quality .......... NO
  Infiltration Method ...... HORTON
  Flow Routing Method ...... DYNWAVE
  Surcharge Method ......... EXTRAN
  Starting Date ............ 01/01/2019 00:00:00
  Ending Date .............. 01/01/2019 03:20:00
  Antecedent Dry Days ...... 0.0
  Report Time Step ......... 00:05:00
  Wet Time Step ............ 00:01:00
  Dry Time Step ............ 00:10:00
  Routing Time Step ........ 1.00 sec
  Variable Time Step ....... YES
  Maximum Trials ........... 12
  Number of Threads ........ 2
  Head Tolerance ........... 0.000200 m
  
  
  **************************        Volume         Depth
  Runoff Quantity Continuity     hectare-m            mm
  **************************     ---------       -------
  Total Precipitation ......         0.427        15.393
  Evaporation Loss .........         0.003         0.093
  Infiltration Loss ........         0.018         0.652
  Surface Runoff ...........         0.314        11.297
  Final Storage ............         0.099         3.567
  Continuity Error (%) .....        -1.404
  
  
  **************************        Volume        Volume
  Flow Routing Continuity        hectare-m      10^6 ltr
  **************************     ---------     ---------
  Dry Weather Inflow .......         0.000         0.000
  Wet Weather Inflow .......         0.313         3.134
  Groundwater Inflow .......         0.000         0.000
  RDII Inflow ..............         0.000         0.000
  External Inflow ..........         0.000         0.000
  External Outflow .........         0.313         3.128
  Flooding Loss ............         0.000         0.000
  Evaporation Loss .........         0.000         0.000
  Exfiltration Loss ........         0.000         0.000
  Initial Stored Volume ....         0.000         0.000
  Final Stored Volume ......         0.002         0.018
  Continuity Error (%) .....        -0.410
  
  
  *************************
  Highest Continuity Errors
  *************************
  Node j_90650 (3.22%)
  Node j_90618 (2.97%)
  Node j_90638 (2.81%)
  Node j_90457 (2.33%)
  Node j_90628 (2.21%)
  
  
  ***************************
  Time-Step Critical Elements
  ***************************
  Link c_904312 (28.73%)
  
  
  ********************************
  Highest Flow Instability Indexes
  ********************************
  Link c_906651 (3)
  
  
  *************************
  Routing Time Step Summary
  *************************
  Minimum Time Step           :     0.43 sec
  Average Time Step           :     0.90 sec
  Maximum Time Step           :     1.00 sec
  Percent in Steady State     :     2.50
  Average Iterations per Step :     2.74
  Percent Not Converging      :     6.42
  Time Step Frequencies       :
      1.000 -  0.871 sec      :    73.58 %
      0.871 -  0.758 sec      :     3.32 %
      0.758 -  0.660 sec      :     4.17 %
      0.660 -  0.574 sec      :     6.20 %
      0.574 -  0.500 sec      :    12.72 %
  
  
  ***************************
  Subcatchment Runoff Summary
  ***************************
  
  ------------------------------------------------------------------------------------------------------------------------------
                            Total      Total      Total      Total     Imperv       Perv      Total       Total     Peak  Runoff
                           Precip      Runon       Evap      Infil     Runoff     Runoff     Runoff      Runoff   Runoff   Coeff
  Subcatchment                 mm         mm         mm         mm         mm         mm         mm    10^6 ltr      CMS
  ------------------------------------------------------------------------------------------------------------------------------
  sub_9006F                 15.39       0.00       0.09       0.54       6.44       4.58      11.02        0.00     0.01   0.716
  sub_90334                 15.39       0.00       0.09       1.43       1.17      12.08      13.24        0.02     0.01   0.860
  sub_90335                 15.39       0.00       0.09       0.33       7.71       2.78      10.48        0.02     0.02   0.681
  sub_90336                 15.39       0.00       0.09       1.10       3.12       9.30      12.42        0.00     0.00   0.807
  sub_90363                 15.39       0.00       0.09       0.33       7.69       2.80      10.49        0.02     0.03   0.682
  sub_90364                 15.39       0.00       0.09       1.21       2.46      10.24      12.70        0.01     0.01   0.825
  sub_90365                 15.39       0.00       0.09       1.62       0.00      13.73      13.73        0.00     0.00   0.892
  sub_90366                 15.39       0.00       0.09       0.55       6.40       4.64      11.04        0.01     0.01   0.717
  sub_90367                 15.39       0.00       0.09       0.92       4.16       7.82      11.98        0.01     0.01   0.778
  sub_90369                 15.39       0.00       0.09       0.66       5.73       5.59      11.32        0.02     0.02   0.735
  sub_90370                 15.39       0.00       0.09       0.44       7.01       3.76      10.78        0.01     0.01   0.700
  sub_90371                 15.39       0.00       0.09       0.23       8.28       1.96      10.24        0.01     0.01   0.665
  sub_90372                 15.39       0.00       0.09       1.02       3.56       8.67      12.23        0.00     0.00   0.795
  sub_90373                 15.39       0.00       0.09       0.07       9.24       0.60       9.84        0.01     0.01   0.639
  sub_90375                 15.39       0.00       0.09       0.32       7.73       2.75      10.48        0.01     0.01   0.681
  sub_90376                 15.39       0.00       0.09       0.58       6.21       4.90      11.12        0.00     0.00   0.722
  sub_90377                 15.39       0.00       0.09       0.34       7.62       2.90      10.52        0.01     0.01   0.684
  sub_90378                 15.39       0.00       0.09       0.46       6.94       3.87      10.81        0.01     0.01   0.702
  sub_90379                 15.39       0.00       0.09       0.77       5.09       6.51      11.59        0.01     0.01   0.753
  sub_90380                 15.39       0.00       0.09       0.70       5.50       5.92      11.42        0.01     0.02   0.742
  sub_90381                 15.39       0.00       0.09       0.71       5.45       5.99      11.44        0.01     0.01   0.743
  sub_90382                 15.39       0.00       0.09       0.59       6.17       4.97      11.13        0.01     0.01   0.723
  sub_90383                 15.39       0.00       0.09       0.50       6.68       4.24      10.92        0.01     0.01   0.709
  sub_90384                 15.39       0.00       0.09       0.96       3.95       8.11      12.07        0.01     0.01   0.784
  sub_90385                 15.39       0.00       0.09       0.42       7.13       3.59      10.73        0.01     0.01   0.697
  sub_90386                 15.39       0.00       0.09       0.78       5.04       6.57      11.61        0.01     0.01   0.754
  sub_90387                 15.39       0.00       0.09       0.61       6.05       5.13      11.18        0.01     0.01   0.726
  sub_90388                 15.39       0.00       0.09       0.60       6.09       5.08      11.17        0.01     0.01   0.725
  sub_90389                 15.39       0.00       0.09       0.66       5.70       5.63      11.33        0.01     0.01   0.736
  sub_90390                 15.39       0.00       0.09       0.84       4.68       7.07      11.76        0.00     0.00   0.764
  sub_90391                 15.39       0.00       0.09       1.62       0.00      13.73      13.73        0.01     0.01   0.892
  sub_90392                 15.39       0.00       0.09       1.04       3.48       8.78      12.27        0.01     0.01   0.797
  sub_90393                 15.39       0.00       0.09       1.02       3.56       8.67      12.23        0.02     0.02   0.795
  sub_90394                 15.39       0.00       0.09       0.97       3.86       8.24      12.10        0.01     0.01   0.786
  sub_90395                 15.39       0.00       0.09       0.38       7.42       3.19      10.61        0.01     0.01   0.689
  sub_90396                 15.39       0.00       0.09       0.00       9.66       0.00       9.66        0.00     0.00   0.628
  sub_90397                 15.39       0.00       0.09       0.88       4.45       7.41      11.86        0.01     0.01   0.770
  sub_90398                 15.39       0.00       0.09       0.91       4.22       7.74      11.96        0.01     0.01   0.777
  sub_90399                 15.39       0.00       0.09       0.51       6.61       4.34      10.95        0.01     0.01   0.711
  sub_90400                 15.39       0.00       0.09       0.61       6.04       5.15      11.19        0.01     0.01   0.727
  sub_90401                 15.39       0.00       0.09       0.36       7.53       3.03      10.56        0.01     0.01   0.686
  sub_90402                 15.39       0.00       0.09       0.38       7.40       3.21      10.61        0.01     0.01   0.690
  sub_90403                 15.39       0.00       0.09       0.61       6.01       5.19      11.20        0.01     0.01   0.728
  sub_90404                 15.39       0.00       0.09       0.64       5.82       5.46      11.28        0.01     0.01   0.733
  sub_90405                 15.39       0.00       0.09       0.71       5.45       5.99      11.44        0.01     0.01   0.743
  sub_90406                 15.39       0.00       0.09       0.86       4.56       7.25      11.81        0.01     0.01   0.767
  sub_90407                 15.39       0.00       0.09       0.84       4.66       7.11      11.77        0.01     0.01   0.765
  sub_90408                 15.39       0.00       0.09       0.54       6.46       4.55      11.01        0.02     0.02   0.715
  sub_90427                 15.39       0.00       0.09       0.63       5.91       5.34      11.24        0.02     0.02   0.730
  sub_90428                 15.39       0.00       0.09       0.77       5.10       6.48      11.58        0.01     0.01   0.753
  sub_90430                 15.39       0.00       0.09       0.36       7.49       3.08      10.58        0.01     0.01   0.687
  sub_90431                 15.39       0.00       0.09       0.59       6.16       4.98      11.14        0.01     0.01   0.724
  sub_90433                 15.39       0.00       0.09       0.81       4.83       6.87      11.70        0.00     0.00   0.760
  sub_90434                 15.39       0.00       0.09       0.29       7.94       2.45      10.39        0.01     0.01   0.675
  sub_90435                 15.39       0.00       0.09       0.52       6.59       4.36      10.96        0.01     0.01   0.712
  sub_90436                 15.39       0.00       0.09       0.26       8.12       2.20      10.31        0.01     0.01   0.670
  sub_90437                 15.39       0.00       0.09       0.41       7.22       3.46      10.69        0.01     0.01   0.694
  sub_90438                 15.39       0.00       0.09       0.58       6.22       4.89      11.11        0.01     0.01   0.722
  sub_90439                 15.39       0.00       0.09       0.58       6.18       4.94      11.13        0.01     0.01   0.723
  sub_90440                 15.39       0.00       0.09       0.66       5.72       5.60      11.32        0.02     0.02   0.736
  sub_90441                 15.39       0.00       0.09       1.08       3.22       9.16      12.38        0.01     0.01   0.804
  sub_90442                 15.39       0.00       0.09       1.27       2.09      10.76      12.85        0.02     0.02   0.835
  sub_90443                 15.39       0.00       0.09       0.95       4.02       8.02      12.04        0.03     0.03   0.782
  sub_90444                 15.39       0.00       0.09       0.46       6.95       3.86      10.81        0.01     0.01   0.702
  sub_90445                 15.39       0.00       0.09       0.80       4.89       6.78      11.67        0.01     0.01   0.758
  sub_90446                 15.39       0.00       0.09       0.48       6.78       4.10      10.88        0.01     0.01   0.707
  sub_90447                 15.39       0.00       0.09       0.75       5.17       6.38      11.55        0.01     0.01   0.751
  sub_90448                 15.39       0.00       0.09       0.70       5.49       5.93      11.42        0.01     0.02   0.742
  sub_90449                 15.39       0.00       0.09       0.66       5.73       5.59      11.32        0.01     0.01   0.735
  sub_90450                 15.39       0.00       0.09       0.56       6.33       4.74      11.07        0.00     0.00   0.719
  sub_90451                 15.39       0.00       0.09       0.71       5.43       6.02      11.45        0.01     0.01   0.744
  sub_90452                 15.39       0.00       0.09       0.91       4.23       7.72      11.95        0.01     0.01   0.776
  sub_90453                 15.39       0.00       0.09       0.47       6.87       3.97      10.84        0.01     0.01   0.704
  sub_90454                 15.39       0.00       0.09       0.63       5.90       5.35      11.25        0.01     0.01   0.731
  sub_90455                 15.39       0.00       0.09       0.35       7.59       2.94      10.53        0.01     0.01   0.684
  sub_90456                 15.39       0.00       0.09       0.94       4.06       7.97      12.02        0.02     0.02   0.781
  sub_90457                 15.39       0.00       0.09       0.93       4.15       7.84      11.98        0.02     0.02   0.779
  sub_90459                 15.39       0.00       0.09       1.12       2.97       9.51      12.48        0.02     0.02   0.811
  sub_90460                 15.39       0.00       0.09       1.50       0.70      12.74      13.44        0.01     0.01   0.873
  sub_90461                 15.39       0.00       0.09       0.54       6.44       4.58      11.02        0.00     0.01   0.716
  sub_90462                 15.39       0.00       0.09       0.76       5.12       6.45      11.57        0.01     0.01   0.752
  sub_90463                 15.39       0.00       0.09       0.39       7.33       3.31      10.64        0.01     0.01   0.692
  sub_90464                 15.39       0.00       0.09       0.65       5.78       5.52      11.30        0.01     0.01   0.734
  sub_90465                 15.39       0.00       0.09       0.35       7.59       2.94      10.53        0.01     0.01   0.684
  sub_90466                 15.39       0.00       0.09       0.61       6.04       5.15      11.19        0.01     0.01   0.727
  sub_90467                 15.39       0.00       0.09       0.30       7.89       2.52      10.41        0.02     0.02   0.676
  sub_90468                 15.39       0.00       0.09       0.58       6.23       4.88      11.11        0.01     0.02   0.722
  sub_90469                 15.39       0.00       0.09       0.35       7.59       2.94      10.53        0.01     0.01   0.684
  sub_90470                 15.39       0.00       0.09       0.60       6.11       5.05      11.16        0.01     0.01   0.725
  sub_90471                 15.39       0.00       0.09       0.49       6.72       4.19      10.90        0.01     0.01   0.708
  sub_90477                 15.39       0.00       0.09       0.34       7.65       2.86      10.51        0.02     0.02   0.683
  sub_90478                 15.39       0.00       0.09       0.39       7.33       3.31      10.64        0.01     0.01   0.692
  sub_90479                 15.39       0.00       0.09       0.93       4.12       7.87      12.00        0.01     0.01   0.779
  sub_90480                 15.39       0.00       0.09       0.46       6.93       3.88      10.81        0.01     0.02   0.702
  sub_90481                 15.39       0.00       0.09       0.58       6.20       4.91      11.12        0.01     0.01   0.722
  sub_90482                 15.39       0.00       0.09       0.60       6.06       5.12      11.18        0.01     0.01   0.726
  sub_90483                 15.39       0.00       0.09       1.22       2.42      10.30      12.72        0.01     0.01   0.826
  sub_90484                 15.39       0.00       0.09       0.51       6.64       4.29      10.93        0.01     0.01   0.710
  sub_90485                 15.39       0.00       0.09       0.91       4.22       7.74      11.96        0.02     0.02   0.777
  sub_90486                 15.39       0.00       0.09       0.68       5.62       5.74      11.36        0.02     0.02   0.738
  sub_90487                 15.39       0.00       0.09       0.58       6.20       4.91      11.12        0.02     0.02   0.722
  sub_90488                 15.39       0.00       0.09       0.71       5.44       6.00      11.44        0.02     0.02   0.743
  sub_90489                 15.39       0.00       0.09       0.36       7.53       3.03      10.56        0.01     0.01   0.686
  sub_90490                 15.39       0.00       0.09       0.32       7.75       2.72      10.47        0.01     0.01   0.680
  sub_90491                 15.39       0.00       0.09       0.38       7.41       3.20      10.61        0.01     0.01   0.689
  sub_90492                 15.39       0.00       0.09       0.51       6.63       4.31      10.94        0.01     0.02   0.711
  sub_90493                 15.39       0.00       0.09       0.35       7.60       2.93      10.53        0.01     0.01   0.684
  sub_90494                 15.39       0.00       0.09       0.33       7.69       2.81      10.49        0.01     0.01   0.682
  sub_90495                 15.39       0.00       0.09       0.52       6.57       4.39      10.96        0.01     0.01   0.712
  sub_90496                 15.39       0.00       0.09       0.35       7.60       2.93      10.53        0.01     0.01   0.684
  sub_90497                 15.39       0.00       0.09       0.31       7.81       2.63      10.44        0.01     0.01   0.678
  sub_90498                 15.39       0.00       0.09       0.58       6.18       4.95      11.13        0.02     0.02   0.723
  sub_90499                 15.39       0.00       0.09       1.02       3.60       8.62      12.22        0.02     0.02   0.794
  sub_90500                 15.39       0.00       0.09       0.75       5.21       6.32      11.54        0.01     0.02   0.749
  sub_90501                 15.39       0.00       0.09       0.33       7.71       2.77      10.48        0.01     0.01   0.681
  sub_90502                 15.39       0.00       0.09       0.64       5.84       5.44      11.27        0.01     0.01   0.732
  sub_90503                 15.39       0.00       0.09       0.36       7.51       3.05      10.57        0.01     0.01   0.686
  sub_90504                 15.39       0.00       0.09       0.33       7.67       2.84      10.50        0.01     0.01   0.682
  sub_90505                 15.39       0.00       0.09       0.39       7.32       3.32      10.65        0.01     0.01   0.692
  sub_90506                 15.39       0.00       0.09       0.43       7.11       3.63      10.74        0.01     0.01   0.698
  sub_90507                 15.39       0.00       0.09       0.45       6.99       3.80      10.79        0.01     0.01   0.701
  sub_90508                 15.39       0.00       0.09       0.44       7.07       3.68      10.75        0.01     0.01   0.699
  sub_90509                 15.39       0.00       0.09       0.90       4.31       7.61      11.92        0.01     0.01   0.774
  sub_90510                 15.39       0.00       0.09       0.41       7.25       3.43      10.68        0.01     0.01   0.694
  sub_90511                 15.39       0.00       0.09       0.70       5.52       5.89      11.41        0.01     0.01   0.741
  sub_90512                 15.39       0.00       0.09       0.46       6.91       3.90      10.82        0.01     0.01   0.703
  sub_90513                 15.39       0.00       0.09       0.32       7.78       2.67      10.45        0.02     0.02   0.679
  sub_90514                 15.39       0.00       0.09       0.42       7.16       3.55      10.71        0.01     0.01   0.696
  sub_90515                 15.39       0.00       0.09       0.74       5.28       6.23      11.51        0.01     0.01   0.748
  sub_90516                 15.39       0.00       0.09       1.03       3.54       8.70      12.24        0.01     0.01   0.795
  sub_90517                 15.39       0.00       0.09       0.74       5.23       6.29      11.53        0.01     0.01   0.749
  sub_90518                 15.39       0.00       0.09       0.22       8.34       1.88      10.22        0.01     0.01   0.664
  sub_90519                 15.39       0.00       0.09       0.83       4.74       7.00      11.74        0.02     0.03   0.762
  sub_90520                 15.39       0.00       0.09       0.80       4.87       6.81      11.68        0.01     0.02   0.759
  sub_90521                 15.39       0.00       0.09       0.47       6.84       4.01      10.85        0.01     0.01   0.705
  sub_90522                 15.39       0.00       0.09       0.38       7.40       3.21      10.61        0.00     0.01   0.690
  sub_90523                 15.39       0.00       0.09       0.47       6.86       3.99      10.84        0.01     0.02   0.704
  sub_90524                 15.39       0.00       0.09       0.79       4.95       6.70      11.65        0.02     0.02   0.757
  sub_90525                 15.39       0.00       0.09       1.00       3.72       8.44      12.16        0.03     0.03   0.790
  sub_90526                 15.39       0.00       0.09       0.80       4.89       6.78      11.67        0.01     0.01   0.758
  sub_90527                 15.39       0.00       0.09       1.03       3.50       8.75      12.26        0.01     0.01   0.796
  sub_90549                 15.39       0.00       0.09       0.75       5.19       6.35      11.55        0.01     0.01   0.750
  sub_90550                 15.39       0.00       0.09       0.00       9.66       0.00       9.66        0.00     0.01   0.628
  sub_90551                 15.39       0.00       0.09       0.88       4.43       7.43      11.86        0.01     0.01   0.771
  sub_90552                 15.39       0.00       0.09       0.36       7.52       3.04      10.56        0.03     0.04   0.686
  sub_90553                 15.39       0.00       0.09       0.84       4.65       7.12      11.77        0.01     0.01   0.765
  sub_90554                 15.39       0.00       0.09       0.80       4.89       6.78      11.67        0.01     0.01   0.758
  sub_90555                 15.39       0.00       0.09       0.98       3.84       8.27      12.11        0.01     0.01   0.787
  sub_90556                 15.39       0.00       0.09       1.07       3.29       9.06      12.35        0.02     0.02   0.802
  sub_90557                 15.39       0.00       0.09       0.55       6.38       4.67      11.05        0.01     0.01   0.718
  sub_90558                 15.39       0.00       0.09       0.56       6.35       4.71      11.06        0.02     0.02   0.718
  sub_90559                 15.39       0.00       0.09       0.87       4.46       7.39      11.85        0.01     0.01   0.770
  sub_90560                 15.39       0.00       0.09       0.72       5.37       6.10      11.47        0.02     0.02   0.745
  sub_90561                 15.39       0.00       0.09       0.64       5.84       5.43      11.27        0.01     0.02   0.732
  sub_90562                 15.39       0.00       0.09       0.59       6.13       5.02      11.15        0.01     0.02   0.724
  sub_90563                 15.39       0.00       0.09       0.56       6.32       4.74      11.07        0.01     0.01   0.719
  sub_90564                 15.39       0.00       0.09       0.48       6.77       4.10      10.88        0.01     0.01   0.707
  sub_90565                 15.39       0.00       0.09       0.69       5.55       5.85      11.40        0.01     0.01   0.740
  sub_90566                 15.39       0.00       0.09       0.71       5.44       6.00      11.44        0.01     0.01   0.743
  sub_90567                 15.39       0.00       0.09       0.84       4.64       7.14      11.78        0.01     0.01   0.765
  sub_90568                 15.39       0.00       0.09       0.00       9.66       0.00       9.66        0.00     0.01   0.628
  sub_90569                 15.39       0.00       0.09       0.78       5.04       6.58      11.61        0.01     0.01   0.754
  sub_90570                 15.39       0.00       0.09       0.93       4.14       7.85      11.99        0.01     0.01   0.779
  sub_90571                 15.39       0.00       0.09       0.50       6.70       4.21      10.91        0.01     0.01   0.709
  sub_90572                 15.39       0.00       0.09       0.49       6.72       4.19      10.90        0.01     0.01   0.708
  sub_90573                 15.39       0.00       0.09       0.33       7.69       2.81      10.49        0.01     0.01   0.682
  sub_90574                 15.39       0.00       0.09       0.38       7.42       3.18      10.61        0.01     0.01   0.689
  sub_90575                 15.39       0.00       0.09       0.62       6.00       5.21      11.21        0.01     0.01   0.728
  sub_90576                 15.39       0.00       0.09       0.67       5.68       5.66      11.34        0.01     0.01   0.737
  sub_90577                 15.39       0.00       0.09       0.65       5.80       5.49      11.29        0.01     0.01   0.733
  sub_90578                 15.39       0.00       0.09       0.57       6.29       4.79      11.08        0.01     0.02   0.720
  sub_90579                 15.39       0.00       0.09       0.47       6.84       4.01      10.85        0.01     0.01   0.705
  sub_90580                 15.39       0.00       0.09       0.98       3.80       8.33      12.13        0.01     0.01   0.788
  sub_90581                 15.39       0.00       0.09       0.79       4.94       6.71      11.65        0.01     0.01   0.757
  sub_90582                 15.39       0.00       0.09       0.62       5.95       5.27      11.22        0.01     0.01   0.729
  sub_90583                 15.39       0.00       0.09       0.78       5.03       6.59      11.61        0.01     0.01   0.755
  sub_90584                 15.39       0.00       0.09       0.44       7.06       3.69      10.76        0.01     0.01   0.699
  sub_90585                 15.39       0.00       0.09       0.43       7.07       3.68      10.75        0.01     0.01   0.699
  sub_90586                 15.39       0.00       0.09       0.48       6.81       4.05      10.86        0.01     0.01   0.706
  sub_90587                 15.39       0.00       0.09       0.53       6.52       4.46      10.98        0.01     0.01   0.714
  sub_90588                 15.39       0.00       0.09       0.36       7.50       3.07      10.57        0.01     0.01   0.687
  sub_90589                 15.39       0.00       0.09       0.59       6.13       5.02      11.15        0.01     0.01   0.724
  sub_90590                 15.39       0.00       0.09       0.57       6.26       4.83      11.09        0.01     0.02   0.721
  sub_90591                 15.39       0.00       0.09       0.39       7.35       3.29      10.64        0.01     0.01   0.691
  sub_90592                 15.39       0.00       0.09       0.38       7.42       3.19      10.61        0.01     0.01   0.689
  sub_90593                 15.39       0.00       0.09       0.51       6.62       4.32      10.94        0.01     0.01   0.711
  sub_90594                 15.39       0.00       0.09       0.63       5.91       5.33      11.24        0.02     0.02   0.730
  sub_90595                 15.39       0.00       0.09       0.64       5.88       5.38      11.26        0.01     0.01   0.731
  sub_90596                 15.39       0.00       0.09       0.36       7.51       3.05      10.57        0.01     0.01   0.686
  sub_90597                 15.39       0.00       0.09       0.85       4.63       7.16      11.78        0.01     0.01   0.766
  sub_90598                 15.39       0.00       0.09       0.84       4.66       7.10      11.77        0.01     0.01   0.765
  sub_90599                 15.39       0.00       0.09       0.62       5.99       5.22      11.21        0.01     0.01   0.728
  sub_90600                 15.39       0.00       0.09       0.56       6.32       4.74      11.07        0.01     0.01   0.719
  sub_90601                 15.39       0.00       0.09       0.94       4.09       7.92      12.01        0.01     0.01   0.780
  sub_90602                 15.39       0.00       0.09       0.70       5.52       5.89      11.41        0.01     0.01   0.741
  sub_90603                 15.39       0.00       0.09       0.88       4.40       7.47      11.88        0.01     0.01   0.772
  sub_90604                 15.39       0.00       0.09       0.59       6.15       4.99      11.14        0.01     0.01   0.724
  sub_90605                 15.39       0.00       0.09       0.58       6.20       4.92      11.12        0.02     0.02   0.722
  sub_90606                 15.39       0.00       0.09       0.65       5.77       5.52      11.30        0.01     0.01   0.734
  sub_90607                 15.39       0.00       0.09       0.68       5.62       5.74      11.36        0.01     0.01   0.738
  sub_90608                 15.39       0.00       0.09       0.81       4.83       6.87      11.70        0.01     0.01   0.760
  sub_90609                 15.39       0.00       0.09       0.95       3.99       8.07      12.05        0.01     0.01   0.783
  sub_90610                 15.39       0.00       0.09       0.92       4.16       7.82      11.98        0.01     0.01   0.778
  sub_90611                 15.39       0.00       0.09       0.83       4.74       6.99      11.73        0.01     0.01   0.762
  sub_90612                 15.39       0.00       0.09       0.93       4.11       7.90      12.00        0.01     0.01   0.780
  sub_90613                 15.39       0.00       0.09       0.99       3.74       8.42      12.16        0.02     0.02   0.790
  sub_90615                 15.39       0.00       0.09       0.85       4.62       7.17      11.79        0.02     0.02   0.766
  sub_90616                 15.39       0.00       0.09       0.43       7.08       3.67      10.75        0.02     0.02   0.698
  sub_90617                 15.39       0.00       0.09       0.56       6.32       4.75      11.07        0.01     0.02   0.719
  sub_90618                 15.39       0.00       0.09       0.36       7.51       3.06      10.57        0.02     0.03   0.687
  sub_90619                 15.39       0.00       0.09       0.06       9.32       0.49       9.81        0.01     0.01   0.637
  sub_90620                 15.39       0.00       0.09       0.38       7.40       3.22      10.62        0.01     0.01   0.690
  sub_90621                 15.39       0.00       0.09       0.80       4.88       6.80      11.68        0.02     0.03   0.759
  sub_90623                 15.39       0.00       0.09       0.69       5.57       5.82      11.39        0.02     0.02   0.740
  sub_90624                 15.39       0.00       0.09       0.66       5.71       5.62      11.33        0.00     0.01   0.736
  sub_90625                 15.39       0.00       0.09       0.57       6.29       4.79      11.08        0.01     0.01   0.720
  sub_90626                 15.39       0.00       0.09       0.50       6.66       4.27      10.93        0.01     0.01   0.710
  sub_90627                 15.39       0.00       0.09       0.89       4.34       7.57      11.91        0.02     0.02   0.773
  sub_90628                 15.39       0.00       0.09       0.73       5.30       6.20      11.50        0.02     0.03   0.747
  sub_90629                 15.39       0.00       0.09       0.85       4.60       7.20      11.80        0.02     0.02   0.766
  sub_90630                 15.39       0.00       0.09       0.36       7.53       3.03      10.56        0.01     0.01   0.686
  sub_90631                 15.39       0.00       0.09       0.56       6.32       4.75      11.07        0.01     0.01   0.719
  sub_90632                 15.39       0.00       0.09       0.58       6.20       4.92      11.12        0.01     0.01   0.722
  sub_90633                 15.39       0.00       0.09       0.36       7.54       3.02      10.56        0.01     0.01   0.686
  sub_90634                 15.39       0.00       0.09       0.54       6.44       4.58      11.02        0.01     0.01   0.716
  sub_90635                 15.39       0.00       0.09       0.79       4.95       6.70      11.65        0.01     0.01   0.757
  sub_90636                 15.39       0.00       0.09       0.60       6.09       5.08      11.17        0.01     0.01   0.725
  sub_90637                 15.39       0.00       0.09       0.56       6.35       4.70      11.06        0.01     0.01   0.718
  sub_90638                 15.39       0.00       0.09       0.32       7.73       2.75      10.48        0.02     0.02   0.681
  sub_90639                 15.39       0.00       0.09       0.85       4.61       7.18      11.79        0.01     0.01   0.766
  sub_90640                 15.39       0.00       0.09       0.43       7.13       3.60      10.73        0.01     0.02   0.697
  sub_90641                 15.39       0.00       0.09       0.52       6.54       4.43      10.98        0.01     0.02   0.713
  sub_90642                 15.39       0.00       0.09       0.66       5.73       5.59      11.32        0.01     0.01   0.735
  sub_90643                 15.39       0.00       0.09       0.42       7.14       3.59      10.72        0.02     0.02   0.697
  sub_90644                 15.39       0.00       0.09       0.37       7.48       3.10      10.58        0.01     0.01   0.687
  sub_90645                 15.39       0.00       0.09       0.52       6.57       4.39      10.96        0.01     0.01   0.712
  sub_90646                 15.39       0.00       0.09       0.97       3.86       8.24      12.10        0.01     0.01   0.786
  sub_90647                 15.39       0.00       0.09       1.34       1.69      11.33      13.02        0.01     0.01   0.846
  sub_90648                 15.39       0.00       0.09       0.35       7.56       2.99      10.55        0.01     0.01   0.685
  sub_90649                 15.39       0.00       0.09       0.52       6.57       4.40      10.97        0.01     0.01   0.712
  sub_90650                 15.39       0.00       0.09       0.51       6.62       4.33      10.95        0.02     0.03   0.711
  sub_90651                 15.39       0.00       0.09       0.42       7.15       3.57      10.72        0.01     0.01   0.696
  sub_90652                 15.39       0.00       0.09       0.53       6.49       4.52      11.00        0.01     0.01   0.715
  sub_90653                 15.39       0.00       0.09       0.65       5.80       5.49      11.29        0.01     0.01   0.733
  sub_90654                 15.39       0.00       0.09       0.74       5.23       6.29      11.53        0.00     0.00   0.749
  sub_90655                 15.39       0.00       0.09       0.48       6.79       4.08      10.87        0.01     0.01   0.706
  sub_90656                 15.39       0.00       0.09       0.86       4.56       7.25      11.81        0.01     0.01   0.767
  sub_90657                 15.39       0.00       0.09       0.90       4.30       7.62      11.92        0.01     0.02   0.774
  sub_90658                 15.39       0.00       0.09       0.51       6.60       4.35      10.95        0.01     0.02   0.711
  sub_90659                 15.39       0.00       0.09       1.17       2.67       9.94      12.61        0.01     0.01   0.819
  sub_90662                 15.39       0.00       0.09       0.60       6.08       5.09      11.17        0.00     0.00   0.726
  sub_90663                 15.39       0.00       0.09       0.82       4.77       6.95      11.72        0.03     0.03   0.761
  sub_90664                 15.39       0.00       0.09       1.62       0.00      13.73      13.73        0.00     0.00   0.892
  sub_90665                 15.39       0.00       0.09       0.76       5.15       6.42      11.56        0.01     0.01   0.751
  sub_90669                 15.39       0.00       0.09       0.61       6.01       5.20      11.20        0.00     0.00   0.728
  sub_90670                 15.39       0.00       0.09       0.45       6.99       3.80      10.79        0.01     0.01   0.701
  sub_90671                 15.39       0.00       0.09       0.49       6.72       4.18      10.90        0.00     0.00   0.708
  sub_90672                 15.39       0.00       0.09       0.66       5.75       5.55      11.31        0.01     0.01   0.735
  sub_90673                 15.39       0.00       0.09       0.84       4.68       7.08      11.76        0.01     0.01   0.764
  sub_90674                 15.39       0.00       0.09       0.24       8.22       2.05      10.27        0.01     0.02   0.667
  sub_90675                 15.39       0.00       0.09       0.37       7.46       3.13      10.59        0.02     0.02   0.688
  sub_90676                 15.39       0.00       0.09       0.55       6.41       4.62      11.03        0.01     0.02   0.717
  sub_90677                 15.39       0.00       0.09       0.80       4.92       6.75      11.66        0.01     0.01   0.758
  sub_90678                 15.39       0.00       0.09       0.71       5.41       6.04      11.45        0.01     0.01   0.744
  sub_90679                 15.39       0.00       0.09       0.78       4.99       6.65      11.63        0.02     0.02   0.756
  sub_90680                 15.39       0.00       0.09       0.45       6.98       3.81      10.79        0.02     0.02   0.701
  sub_90681                 15.39       0.00       0.09       0.80       4.91       6.75      11.66        0.01     0.01   0.758
  sub_90682                 15.39       0.00       0.09       0.72       5.39       6.07      11.46        0.01     0.01   0.745
  sub_90683                 15.39       0.00       0.09       1.18       2.61      10.03      12.63        0.01     0.01   0.821
  sub_90684                 15.39       0.00       0.09       0.26       8.09       2.24      10.32        0.00     0.01   0.671
  sub_90685                 15.39       0.00       0.09       0.19       8.51       1.63      10.15        0.00     0.01   0.659
  sub_90686                 15.39       0.00       0.09       0.71       5.41       6.04      11.45        0.01     0.01   0.744
  sub_90688                 15.39       0.00       0.09       0.54       6.44       4.58      11.02        0.01     0.01   0.716
  sub_90689                 15.39       0.00       0.09       0.87       4.51       7.32      11.83        0.01     0.01   0.769
  sub_90690                 15.39       0.00       0.09       0.68       5.62       5.74      11.36        0.01     0.01   0.738
  sub_90691                 15.39       0.00       0.09       0.58       6.19       4.94      11.12        0.01     0.01   0.723
  sub_90692                 15.39       0.00       0.09       0.50       6.66       4.27      10.93        0.00     0.01   0.710
  sub_90693                 15.39       0.00       0.09       0.95       3.98       8.08      12.06        0.00     0.00   0.783
  sub_90694                 15.39       0.00       0.09       1.31       1.87      11.08      12.95        0.00     0.00   0.841
  sub_90695                 15.39       0.00       0.09       0.73       5.31       6.18      11.49        0.00     0.01   0.747
  sub_90696                 15.39       0.00       0.09       0.81       4.83       6.87      11.70        0.00     0.00   0.760
  sub_90697                 15.39       0.00       0.09       0.83       4.69       7.06      11.76        0.00     0.00   0.764
  sub_90698                 15.39       0.00       0.09       0.94       4.05       7.97      12.03        0.00     0.00   0.781
  sub_90699                 15.39       0.00       0.09       1.12       3.00       9.47      12.47        0.00     0.00   0.810
  sub_90700                 15.39       0.00       0.09       0.31       7.82       2.62      10.44        0.00     0.00   0.678
  sub_90701                 15.39       0.00       0.09       0.29       7.96       2.42      10.38        0.00     0.00   0.674
  sub_90702                 15.39       0.00       0.09       0.32       7.73       2.75      10.48        0.00     0.00   0.681
  sub_90703                 15.39       0.00       0.09       0.83       4.70       7.05      11.75        0.01     0.01   0.764
  sub_90704                 15.39       0.00       0.09       0.80       4.89       6.79      11.67        0.01     0.01   0.758
  sub_90705                 15.39       0.00       0.09       0.87       4.50       7.34      11.84        0.02     0.02   0.769
  sub_90706                 15.39       0.00       0.09       0.59       6.13       5.02      11.15        0.00     0.01   0.724
  sub_90707                 15.39       0.00       0.09       0.40       7.31       3.35      10.65        0.00     0.01   0.692
  sub_90708                 15.39       0.00       0.09       0.96       3.92       8.16      12.08        0.02     0.02   0.785
  sub_90709                 15.39       0.00       0.09       0.71       5.41       6.04      11.45        0.01     0.01   0.744
  sub_90710                 15.39       0.00       0.09       0.93       4.11       7.89      12.00        0.02     0.02   0.780
  sub_90724                 15.39       0.00       0.09       0.97       3.86       8.24      12.10        0.01     0.01   0.786
  sub_90725                 15.39       0.00       0.09       1.62       0.00      13.73      13.73        0.00     0.00   0.892
  sub_90726                 15.39       0.00       0.09       1.62       0.00      13.73      13.73        0.00     0.00   0.892
  sub_90727                 15.39       0.00       0.09       1.62       0.00      13.73      13.73        0.00     0.00   0.892
  sub_90728                 15.39       0.00       0.09       1.62       0.00      13.73      13.73        0.01     0.01   0.892
  sub_90729                 15.39       0.00       0.09       1.62       0.00      13.73      13.73        0.00     0.00   0.892
  sub_90730                 15.39       0.00       0.09       1.62       0.00      13.73      13.73        0.01     0.01   0.892
  sub_90731                 15.39       0.00       0.09       1.62       0.00      13.73      13.73        0.01     0.01   0.892
  sub_90732                 15.39       0.00       0.09       1.62       0.00      13.73      13.73        0.00     0.00   0.892
  sub_90733                 15.39       0.00       0.09       0.48       6.82       4.04      10.86        0.01     0.01   0.705
  
  
  ******************
  Node Depth Summary
  ******************
  
  ---------------------------------------------------------------------------------
                                 Average  Maximum  Maximum  Time of Max    Reported
                                   Depth    Depth      HGL   Occurrence   Max Depth
  Node                 Type       Meters   Meters   Meters  days hr:min      Meters
  ---------------------------------------------------------------------------------
  j_9006F              JUNCTION     0.09     0.41     0.05     0  01:51        0.41
  j_90334              JUNCTION     0.04     0.24     0.03     0  01:50        0.24
  j_90335              JUNCTION     0.07     0.42     0.01     0  01:50        0.42
  j_90336              JUNCTION     0.06     0.27     0.10     0  01:45        0.26
  j_90363              JUNCTION     0.09     0.38     0.03     0  01:50        0.38
  j_90364              JUNCTION     0.09     0.38     0.03     0  01:50        0.38
  j_90365              JUNCTION     0.09     0.38     0.03     0  01:50        0.38
  j_90366              JUNCTION     0.05     0.33     0.02     0  01:50        0.32
  j_90367              JUNCTION     0.10     0.51     0.02     0  01:50        0.50
  j_90368              JUNCTION     0.04     0.31     0.02     0  01:50        0.31
  j_90369              JUNCTION     0.05     0.32     0.02     0  01:50        0.31
  j_90370              JUNCTION     0.11     0.52     0.01     0  01:50        0.52
  j_90371              JUNCTION     0.13     0.55    -0.01     0  01:50        0.54
  j_90372              JUNCTION     0.03     0.24    -0.01     0  01:50        0.23
  j_90373              JUNCTION     0.09     0.49     0.02     0  01:50        0.45
  j_90374              JUNCTION     0.03     0.27    -0.01     0  01:50        0.26
  j_90375              JUNCTION     0.05     0.33    -0.01     0  01:50        0.31
  j_90376              JUNCTION     0.02     0.12    -0.03     0  01:51        0.10
  j_90377              JUNCTION     0.02     0.13    -0.04     0  01:51        0.12
  j_90378              JUNCTION     0.04     0.24    -0.16     0  01:50        0.23
  j_90379              JUNCTION     0.02     0.14    -0.11     0  01:45        0.14
  j_90380              JUNCTION     0.03     0.20    -0.13     0  01:50        0.20
  j_90381              JUNCTION     0.07     0.32    -0.13     0  01:50        0.32
  j_90382              JUNCTION     0.19     0.78    -0.14     0  01:50        0.78
  j_90383              JUNCTION     0.17     0.71    -0.11     0  01:50        0.71
  j_90384              JUNCTION     0.09     0.35    -0.11     0  01:50        0.35
  j_90385              JUNCTION     0.04     0.26    -0.11     0  01:50        0.26
  j_90386              JUNCTION     0.03     0.14    -0.09     0  01:45        0.14
  j_90387              JUNCTION     0.02     0.17    -0.03     0  01:50        0.17
  j_90388              JUNCTION     0.08     0.37    -0.02     0  01:50        0.36
  j_90389              JUNCTION     0.13     0.57    -0.04     0  01:50        0.57
  j_90390              JUNCTION     0.12     0.55    -0.02     0  01:50        0.54
  j_90391              JUNCTION     0.07     0.28     0.04     0  01:45        0.28
  j_90392              JUNCTION     0.08     0.31     0.06     0  01:45        0.31
  j_90393              JUNCTION     0.06     0.28     0.09     0  01:45        0.28
  j_90394              JUNCTION     0.04     0.21     0.11     0  01:45        0.20
  j_90395              JUNCTION     0.03     0.19     0.11     0  01:45        0.19
  j_90396              JUNCTION     0.02     0.13     0.11     0  01:45        0.13
  j_90397              JUNCTION     0.16     0.68    -0.09     0  01:50        0.67
  j_90398              JUNCTION     0.10     0.53    -0.09     0  01:50        0.53
  j_90399              JUNCTION     0.03     0.22    -0.09     0  01:50        0.21
  j_90400              JUNCTION     0.02     0.16    -0.10     0  01:51        0.14
  j_90401              JUNCTION     0.03     0.14    -0.17     0  01:50        0.14
  j_90402              JUNCTION     0.03     0.24    -0.12     0  01:51        0.20
  j_90403              JUNCTION     0.02     0.15    -0.10     0  01:51        0.13
  j_90404              JUNCTION     0.03     0.21    -0.09     0  01:50        0.20
  j_90405              JUNCTION     0.09     0.48    -0.08     0  01:51        0.46
  j_90406              JUNCTION     0.08     0.41    -0.09     0  01:50        0.41
  j_90407              JUNCTION     0.05     0.33    -0.08     0  01:50        0.32
  j_90408              JUNCTION     0.04     0.25    -0.07     0  01:50        0.23
  j_90427              JUNCTION     0.12     0.53     0.10     0  01:50        0.53
  j_90428              JUNCTION     0.09     0.47     0.10     0  01:50        0.47
  j_90430              JUNCTION     0.05     0.20    -1.37     0  01:51        0.20
  j_90433              JUNCTION     0.05     0.24    -0.13     0  01:51        0.23
  j_90434              JUNCTION     0.09     0.30    -0.13     0  01:51        0.29
  j_90435              JUNCTION     0.04     0.19    -0.18     0  01:50        0.18
  j_90436              JUNCTION     0.06     0.29    -0.17     0  01:45        0.29
  j_90437              JUNCTION     0.22     0.78    -0.58     0  01:50        0.77
  j_90438              JUNCTION     0.26     0.90    -0.45     0  01:50        0.89
  j_90439              JUNCTION     0.03     0.18    -0.03     0  01:50        0.17
  j_90440              JUNCTION     0.04     0.24     0.08     0  01:50        0.23
  j_90441              JUNCTION     0.02     0.10    -0.03     0  01:50        0.09
  j_90442              JUNCTION     0.18     0.61    -0.03     0  01:50        0.60
  j_90443              JUNCTION     0.26     0.93    -0.37     0  01:50        0.92
  j_90444              JUNCTION     0.20     0.83    -0.28     0  01:50        0.83
  j_90445              JUNCTION     0.04     0.21    -0.22     0  01:45        0.21
  j_90446              JUNCTION     0.03     0.18    -0.18     0  01:45        0.18
  j_90447              JUNCTION     0.03     0.15    -0.10     0  01:45        0.15
  j_90448              JUNCTION     0.02     0.14    -0.13     0  01:45        0.14
  j_90449              JUNCTION     0.05     0.26    -0.22     0  01:50        0.26
  j_90450              JUNCTION     0.04     0.25    -0.22     0  01:50        0.25
  j_90451              JUNCTION     0.18     0.80    -0.22     0  01:50        0.79
  j_90452              JUNCTION     0.04     0.25    -0.17     0  01:50        0.25
  j_90453              JUNCTION     0.19     0.79    -0.17     0  01:50        0.79
  j_90454              JUNCTION     0.05     0.23    -0.24     0  01:50        0.23
  j_90455              JUNCTION     0.06     0.28    -0.26     0  01:50        0.27
  j_90456              JUNCTION     0.09     0.39    -0.27     0  01:50        0.38
  j_90457              JUNCTION     0.11     0.46    -0.30     0  01:50        0.46
  j_90459              JUNCTION     0.17     0.72    -0.33     0  01:50        0.71
  j_90460              JUNCTION     0.14     0.65    -0.31     0  01:50        0.65
  j_90461              JUNCTION     0.20     0.77    -0.31     0  01:50        0.77
  j_90462              JUNCTION     0.17     0.74    -0.24     0  01:50        0.73
  j_90463              JUNCTION     0.11     0.56    -0.17     0  01:51        0.55
  j_90464              JUNCTION     0.08     0.48    -0.15     0  01:51        0.45
  j_90465              JUNCTION     0.07     0.40    -0.14     0  01:51        0.37
  j_90466              JUNCTION     0.05     0.31    -0.13     0  01:52        0.27
  j_90467              JUNCTION     0.06     0.35    -0.07     0  01:50        0.33
  j_90468              JUNCTION     0.09     0.44    -0.08     0  01:50        0.42
  j_90469              JUNCTION     0.08     0.48    -0.08     0  01:50        0.45
  j_90470              JUNCTION     0.11     0.57    -0.10     0  01:50        0.55
  j_90471              JUNCTION     0.11     0.59    -0.11     0  01:50        0.57
  j_90477              JUNCTION     0.07     0.47     0.16     0  01:50        0.43
  j_90478              JUNCTION     0.11     0.55     0.14     0  01:47        0.53
  j_90479              JUNCTION     0.07     0.45     0.13     0  01:49        0.45
  j_90480              JUNCTION     0.06     0.39     0.14     0  01:50        0.38
  j_90481              JUNCTION     0.11     0.60     0.20     0  01:50        0.51
  j_90482              JUNCTION     0.13     0.61     0.16     0  01:50        0.56
  j_90483              JUNCTION     0.07     0.41     0.13     0  01:50        0.41
  j_90484              JUNCTION     0.05     0.33     0.13     0  01:50        0.32
  j_90485              JUNCTION     0.08     0.44     0.11     0  01:49        0.43
  j_90486              JUNCTION     0.13     0.57     0.11     0  01:49        0.56
  j_90487              JUNCTION     0.14     0.70     0.18     0  01:43        0.60
  j_90488              JUNCTION     0.17     0.64     0.04     0  01:50        0.63
  j_90489              JUNCTION     0.05     0.29     0.06     0  01:50        0.27
  j_90490              JUNCTION     0.07     0.38     0.07     0  01:50        0.37
  j_90491              JUNCTION     0.16     0.69     0.15     0  01:48        0.64
  j_90492              JUNCTION     0.19     0.70     0.08     0  01:50        0.69
  j_90493              JUNCTION     0.07     0.40     0.08     0  01:50        0.39
  j_90494              JUNCTION     0.23     1.03     0.29     0  01:42        0.79
  j_90495              JUNCTION     0.22     0.79     0.08     0  01:50        0.78
  j_90496              JUNCTION     0.08     0.39     0.07     0  01:50        0.38
  j_90497              JUNCTION     0.03     0.24     0.06     0  01:50        0.23
  j_90498              JUNCTION     0.12     0.53     0.05     0  01:50        0.52
  j_90499              JUNCTION     0.12     0.53     0.06     0  01:50        0.52
  j_90500              JUNCTION     0.09     0.44     0.06     0  01:50        0.44
  j_90501              JUNCTION     0.07     0.35     0.08     0  01:50        0.34
  j_90502              JUNCTION     0.05     0.32     0.09     0  01:50        0.30
  j_90503              JUNCTION     0.05     0.31     0.08     0  01:50        0.30
  j_90504              JUNCTION     0.08     0.37     0.09     0  01:50        0.36
  j_90505              JUNCTION     0.14     0.58     0.08     0  01:50        0.58
  j_90506              JUNCTION     0.15     0.60     0.09     0  01:50        0.59
  j_90507              JUNCTION     0.09     0.46     0.09     0  01:50        0.45
  j_90508              JUNCTION     0.12     0.55     0.10     0  01:50        0.53
  j_90509              JUNCTION     0.06     0.34     0.09     0  01:50        0.33
  j_90510              JUNCTION     0.08     0.41     0.10     0  01:50        0.41
  j_90511              JUNCTION     0.20     0.70     0.11     0  01:49        0.70
  j_90512              JUNCTION     0.17     0.65     0.11     0  01:49        0.65
  j_90513              JUNCTION     0.06     0.33     0.07     0  01:50        0.33
  j_90514              JUNCTION     0.07     0.37     0.05     0  01:50        0.36
  j_90515              JUNCTION     0.10     0.42     0.01     0  01:50        0.42
  j_90516              JUNCTION     0.10     0.34    -0.10     0  01:50        0.34
  j_90517              JUNCTION     0.16     0.73    -0.19     0  01:50        0.72
  j_90518              JUNCTION     0.17     0.73    -0.15     0  01:50        0.72
  j_90519              JUNCTION     0.15     0.71    -0.12     0  01:50        0.70
  j_90520              JUNCTION     0.06     0.29    -0.06     0  01:45        0.29
  j_90521              JUNCTION     0.03     0.19    -0.05     0  01:45        0.19
  j_90522              JUNCTION     0.05     0.23    -0.04     0  01:45        0.23
  j_90523              JUNCTION     0.03     0.19    -0.01     0  01:45        0.19
  j_90524              JUNCTION     0.14     0.68     0.23     0  01:44        0.57
  j_90525              JUNCTION     0.11     0.48     0.13     0  01:49        0.48
  j_90526              JUNCTION     0.08     0.39     0.13     0  01:50        0.39
  j_90527              JUNCTION     0.06     0.31     0.13     0  01:50        0.31
  j_90549              JUNCTION     0.04     0.23    -0.18     0  01:45        0.23
  j_90550              JUNCTION     0.30     0.83    -0.40     0  01:52        0.81
  j_90551              JUNCTION     0.01     0.08     0.13     0  01:42        0.08
  j_90553              JUNCTION     0.11     0.75     0.37     0  01:49        0.57
  j_90554              JUNCTION     0.09     0.71     0.37     0  01:49        0.53
  j_90555              JUNCTION     0.06     0.86     0.62     0  01:49        0.45
  j_90556              JUNCTION     0.11     0.74     0.37     0  01:49        0.56
  j_90557              JUNCTION     0.11     0.72     0.34     0  01:49        0.56
  j_90558              JUNCTION     0.22     0.87     0.16     0  01:49        0.84
  j_90559              JUNCTION     0.16     0.73     0.15     0  01:49        0.71
  j_90560              JUNCTION     0.16     0.70     0.14     0  01:50        0.69
  j_90561              JUNCTION     0.09     0.54     0.16     0  01:49        0.50
  j_90562              JUNCTION     0.13     0.59     0.14     0  01:49        0.57
  j_90563              JUNCTION     0.21     0.80     0.10     0  01:49        0.79
  j_90564              JUNCTION     0.26     0.89     0.08     0  01:49        0.88
  j_90565              JUNCTION     0.07     0.43     0.09     0  01:50        0.41
  j_90566              JUNCTION     0.04     0.28     0.08     0  01:51        0.27
  j_90567              JUNCTION     0.02     0.10     0.13     0  01:42        0.10
  j_90568              JUNCTION     0.29     0.86    -0.25     0  01:51        0.85
  j_90569              JUNCTION     0.09     0.41     0.09     0  01:50        0.37
  j_90570              JUNCTION     0.02     0.17     0.09     0  01:50        0.13
  j_90571              JUNCTION     0.10     0.75     0.32     0  01:49        0.48
  j_90572              JUNCTION     0.28     0.91     0.05     0  01:50        0.90
  j_90573              JUNCTION     0.07     0.40     0.06     0  01:50        0.40
  j_90574              JUNCTION     0.25     0.90     0.10     0  01:42        0.83
  j_90575              JUNCTION     0.30     0.91     0.00     0  01:50        0.90
  j_90576              JUNCTION     0.28     0.87    -0.05     0  01:51        0.85
  j_90577              JUNCTION     0.29     0.88    -0.10     0  01:50        0.86
  j_90578              JUNCTION     0.27     0.85    -0.10     0  01:50        0.85
  j_90579              JUNCTION     0.23     0.80    -0.08     0  01:50        0.80
  j_90580              JUNCTION     0.03     0.20     0.07     0  01:51        0.17
  j_90581              JUNCTION     0.05     0.30     0.06     0  01:50        0.28
  j_90582              JUNCTION     0.05     0.30     0.06     0  01:51        0.27
  j_90583              JUNCTION     0.06     0.35     0.04     0  01:50        0.34
  j_90584              JUNCTION     0.08     0.41     0.06     0  01:50        0.40
  j_90585              JUNCTION     0.26     0.86     0.03     0  01:50        0.85
  j_90586              JUNCTION     0.27     0.88     0.06     0  01:50        0.87
  j_90587              JUNCTION     0.25     0.87     0.08     0  01:50        0.86
  j_90588              JUNCTION     0.08     0.45     0.09     0  01:50        0.44
  j_90589              JUNCTION     0.06     0.37     0.09     0  01:50        0.36
  j_90590              JUNCTION     0.06     0.34     0.09     0  01:50        0.33
  j_90591              JUNCTION     0.19     0.82     0.21     0  01:42        0.72
  j_90592              JUNCTION     0.22     0.78     0.11     0  01:49        0.77
  j_90593              JUNCTION     0.26     0.88     0.09     0  01:50        0.87
  j_90594              JUNCTION     0.22     0.80     0.10     0  01:50        0.78
  j_90595              JUNCTION     0.09     0.43     0.09     0  01:50        0.42
  j_90596              JUNCTION     0.08     0.42     0.10     0  01:52        0.41
  j_90597              JUNCTION     0.07     0.38     0.10     0  01:50        0.37
  j_90598              JUNCTION     0.06     0.35     0.10     0  01:51        0.34
  j_90599              JUNCTION     0.08     0.39     0.10     0  01:50        0.38
  j_90600              JUNCTION     0.05     0.33     0.11     0  01:50        0.30
  j_90601              JUNCTION     0.04     0.28     0.11     0  01:51        0.24
  j_90602              JUNCTION     0.08     0.40     0.13     0  01:52        0.38
  j_90603              JUNCTION     0.08     0.42     0.13     0  01:51        0.40
  j_90604              JUNCTION     0.10     0.49     0.13     0  01:51        0.48
  j_90605              JUNCTION     0.14     0.58     0.12     0  01:51        0.57
  j_90606              JUNCTION     0.14     0.56     0.13     0  01:51        0.54
  j_90607              JUNCTION     0.11     0.51     0.13     0  01:51        0.48
  j_90608              JUNCTION     0.10     0.48     0.14     0  01:51        0.45
  j_90609              JUNCTION     0.04     0.32     0.15     0  01:51        0.27
  j_90610              JUNCTION     0.06     0.37     0.15     0  01:51        0.33
  j_90611              JUNCTION     0.07     0.40     0.13     0  01:51        0.38
  j_90612              JUNCTION     0.06     0.34     0.13     0  01:52        0.33
  j_90613              JUNCTION     0.04     0.24     0.14     0  01:50        0.22
  j_90615              JUNCTION     0.03     0.16    -0.13     0  01:42        0.16
  j_90616              JUNCTION     0.04     0.20    -0.12     0  01:45        0.20
  j_90617              JUNCTION     0.02     0.12    -0.11     0  01:45        0.12
  j_90618              JUNCTION     0.06     0.26    -0.11     0  01:52        0.25
  j_90619              JUNCTION     0.29     0.88    -0.12     0  01:50        0.86
  j_90620              JUNCTION     0.33     0.94    -0.11     0  01:50        0.93
  j_90621              JUNCTION     0.29     0.89    -0.09     0  01:50        0.88
  j_90623              JUNCTION     0.26     0.83    -0.07     0  01:52        0.83
  j_90624              JUNCTION     0.20     0.72    -0.07     0  01:52        0.72
  j_90625              JUNCTION     0.17     0.67    -0.03     0  01:53        0.66
  j_90626              JUNCTION     0.22     0.77    -0.05     0  01:54        0.77
  j_90627              JUNCTION     0.26     0.83    -0.05     0  01:53        0.83
  j_90628              JUNCTION     0.08     0.37    -0.04     0  01:52        0.37
  j_90629              JUNCTION     0.06     0.32    -0.03     0  01:52        0.32
  j_90630              JUNCTION     0.03     0.17    -0.02     0  01:45        0.17
  j_90631              JUNCTION     0.09     0.41    -0.01     0  01:55        0.40
  j_90632              JUNCTION     0.09     0.43    -0.02     0  01:54        0.42
  j_90633              JUNCTION     0.10     0.47    -0.01     0  01:53        0.45
  j_90634              JUNCTION     0.27     0.85    -0.03     0  01:54        0.85
  j_90635              JUNCTION     0.18     0.70     0.00     0  01:49        0.67
  j_90636              JUNCTION     0.14     0.89     0.32     0  01:49        0.54
  j_90637              JUNCTION     0.19     0.69    -0.02     0  01:54        0.69
  j_90638              JUNCTION     0.11     0.47    -0.01     0  01:54        0.47
  j_90639              JUNCTION     0.09     0.39    -0.01     0  01:54        0.39
  j_90640              JUNCTION     0.05     0.28    -0.01     0  01:53        0.28
  j_90641              JUNCTION     0.22     0.80    -0.04     0  01:50        0.75
  j_90642              JUNCTION     0.17     0.65    -0.08     0  01:50        0.65
  j_90643              JUNCTION     0.16     0.66    -0.06     0  01:49        0.64
  j_90644              JUNCTION     0.03     0.15    -0.00     0  01:45        0.15
  j_90645              JUNCTION     0.01     0.06     0.13     0  01:45        0.06
  j_90646              JUNCTION     0.05     0.20     0.10     0  01:45        0.20
  j_90647              JUNCTION     0.02     0.10     0.13     0  01:45        0.10
  j_90648              JUNCTION     0.05     0.29    -0.00     0  01:53        0.28
  j_90649              JUNCTION     0.05     0.21     0.00     0  01:54        0.21
  j_90650              JUNCTION     0.09     0.38     0.00     0  01:54        0.38
  j_90651              JUNCTION     0.09     0.42    -0.02     0  01:54        0.42
  j_90652              JUNCTION     0.08     0.40    -0.02     0  01:54        0.39
  j_90653              JUNCTION     0.03     0.22    -0.02     0  01:53        0.22
  j_90654              JUNCTION     0.17     0.62     0.02     0  01:55        0.62
  j_90655              JUNCTION     0.20     0.67     0.01     0  01:55        0.67
  j_90656              JUNCTION     0.20     0.69    -0.00     0  01:54        0.68
  j_90657              JUNCTION     0.02     0.10     0.33     0  01:45        0.10
  j_90658              JUNCTION     0.03     0.15     0.28     0  01:42        0.15
  j_90659              JUNCTION     0.03     0.16     0.18     0  01:43        0.16
  j_90662              JUNCTION     0.03     0.16    -0.16     0  01:50        0.16
  j_90663              JUNCTION     0.11     0.59     0.16     0  01:47        0.57
  j_90664              JUNCTION     0.05     0.27    -0.00     0  01:53        0.26
  j_90665              JUNCTION     0.28     0.86    -0.11     0  01:51        0.85
  j_90669              JUNCTION     0.12     0.41     0.18     0  01:50        0.41
  j_90670              JUNCTION     0.13     0.44     0.19     0  01:50        0.44
  j_90671              JUNCTION     0.14     0.45     0.19     0  01:50        0.45
  j_90672              JUNCTION     0.12     0.49     0.03     0  01:53        0.49
  j_90673              JUNCTION     0.16     0.56     0.03     0  01:55        0.56
  j_90674              JUNCTION     0.17     0.62     0.02     0  01:55        0.62
  j_90675              JUNCTION     0.11     0.39     0.17     0  01:50        0.39
  j_90676              JUNCTION     0.12     0.42     0.18     0  01:50        0.42
  j_90677              JUNCTION     0.16     0.48     0.19     0  01:48        0.48
  j_90678              JUNCTION     0.05     0.29     0.19     0  01:49        0.29
  j_90679              JUNCTION     0.04     0.22     0.20     0  01:48        0.22
  j_90680              JUNCTION     0.11     0.42     0.12     0  01:50        0.42
  j_90681              JUNCTION     0.13     0.46     0.08     0  01:50        0.45
  j_90682              JUNCTION     0.02     0.10     0.07     0  01:50        0.10
  j_90683              JUNCTION     0.13     0.50     0.05     0  01:51        0.50
  j_90684              JUNCTION     0.09     0.41     0.05     0  01:51        0.41
  j_90685              JUNCTION     0.01     0.08     0.19     0  01:45        0.08
  j_90686              JUNCTION     0.11     0.45     0.05     0  01:50        0.45
  j_90688              JUNCTION     0.02     0.08     0.53     0  01:45        0.08
  j_90689              JUNCTION     0.04     0.20    -0.10     0  01:45        0.20
  j_90690              JUNCTION     0.04     0.18    -0.07     0  01:45        0.18
  j_90691              JUNCTION     0.02     0.10     0.20     0  01:45        0.10
  j_90692              JUNCTION     0.01     0.07     0.27     0  01:45        0.07
  j_90693              JUNCTION     0.01     0.06     0.09     0  01:45        0.06
  j_90694              JUNCTION     0.02     0.08     0.14     0  01:45        0.08
  j_90695              JUNCTION     0.01     0.07     0.57     0  01:45        0.07
  j_90696              JUNCTION     0.02     0.11     0.11     0  01:45        0.11
  j_90697              JUNCTION     0.03     0.15     0.08     0  01:45        0.15
  j_90698              JUNCTION     0.03     0.16     0.04     0  01:45        0.16
  j_90699              JUNCTION     0.03     0.18    -0.00     0  01:45        0.17
  j_90700              JUNCTION     0.01     0.05     0.55     0  01:45        0.05
  j_90701              JUNCTION     0.01     0.04     0.54     0  01:45        0.04
  j_90702              JUNCTION     0.01     0.04     0.54     0  01:45        0.04
  j_90703              JUNCTION     0.14     0.67     0.19     0  01:48        0.59
  j_90704              JUNCTION     0.06     0.36     0.14     0  01:50        0.33
  j_90705              JUNCTION     0.06     1.47     1.21     0  01:48        0.37
  j_90706              JUNCTION     0.17     0.66     0.12     0  01:49        0.66
  j_90707              JUNCTION     0.11     0.51     0.13     0  01:45        0.50
  j_90708              JUNCTION     0.04     0.24     0.13     0  01:50        0.24
  j_90709              JUNCTION     0.06     0.75     0.55     0  01:47        0.35
  j_90710              JUNCTION     0.03     0.21     0.16     0  01:50        0.20
  j_90724              JUNCTION     0.14     0.45     0.19     0  01:49        0.45
  j_90725              JUNCTION     0.03     0.19     0.19     0  01:50        0.19
  j_90726              JUNCTION     0.02     0.15     0.20     0  01:46        0.14
  j_90727              JUNCTION     0.01     0.10     0.20     0  01:46        0.09
  j_90728              JUNCTION     0.02     0.13     0.19     0  01:50        0.13
  j_90729              JUNCTION     0.01     0.05     0.28     0  01:45        0.05
  j_90730              JUNCTION     0.05     0.27     0.19     0  01:50        0.27
  j_90731              JUNCTION     0.02     0.10     0.20     0  01:49        0.10
  j_90732              JUNCTION     0.01     0.05     0.20     0  01:49        0.05
  j_90733              JUNCTION     0.07     0.33     0.19     0  01:50        0.33
  j_91272              JUNCTION     0.00     0.00     0.17     0  00:00        0.00
  j_91273              JUNCTION     0.00     0.00     0.47     0  00:00        0.00
  j_91274              JUNCTION     0.00     0.00     0.23     0  00:00        0.00
  j_91275              JUNCTION     0.00     0.00     0.47     0  00:00        0.00
  j_91276              JUNCTION     0.00     0.00     0.28     0  00:00        0.00
  j_91277              JUNCTION     0.00     0.00     0.51     0  00:00        0.00
  j_91278              JUNCTION     0.00     0.00     0.35     0  00:00        0.00
  j_91279              JUNCTION     0.00     0.00     0.50     0  00:00        0.00
  j_91292              JUNCTION     0.00     0.00    -0.01     0  01:51        0.00
  j_91293              JUNCTION     0.02     0.22    -0.01     0  01:51        0.21
  j_91294              JUNCTION     0.00     0.00     0.31     0  00:00        0.00
  j_90552              OUTFALL      0.00     0.00    -1.29     0  00:00        0.00
  j_90431              OUTFALL      0.05     0.20    -1.41     0  01:51        0.20
  
  
  *******************
  Node Inflow Summary
  *******************
  
  -------------------------------------------------------------------------------------------------
                                  Maximum  Maximum                  Lateral       Total        Flow
                                  Lateral    Total  Time of Max      Inflow      Inflow     Balance
                                   Inflow   Inflow   Occurrence      Volume      Volume       Error
  Node                 Type           CMS      CMS  days hr:min    10^6 ltr    10^6 ltr     Percent
  -------------------------------------------------------------------------------------------------
  j_9006F              JUNCTION     0.005    0.012     0  01:43      0.0043     0.00492       0.000
  j_90334              JUNCTION     0.015    0.015     0  01:45      0.0154      0.0154       0.000
  j_90335              JUNCTION     0.025    0.025     0  01:45      0.0202      0.0202       0.000
  j_90336              JUNCTION     0.004    0.015     0  01:45     0.00385      0.0174       0.000
  j_90363              JUNCTION     0.028    0.028     0  01:45      0.0227      0.0227       0.000
  j_90364              JUNCTION     0.007    0.052     0  01:44     0.00698      0.0463       0.070
  j_90365              JUNCTION     0.001    0.003     0  01:42     0.00124     0.00141       3.389
  j_90366              JUNCTION     0.009    0.009     0  01:45     0.00783     0.00783       0.000
  j_90367              JUNCTION     0.008    0.065     0  01:44     0.00778      0.0622      -0.128
  j_90368              JUNCTION     0.000    0.004     0  01:43           0    0.000556       0.443
  j_90369              JUNCTION     0.021    0.021     0  01:45      0.0183      0.0183       0.000
  j_90370              JUNCTION     0.009    0.052     0  01:42     0.00786      0.0463      -0.352
  j_90371              JUNCTION     0.013    0.110     0  01:45        0.01        0.14      -0.083
  j_90372              JUNCTION     0.005    0.007     0  01:43     0.00465     0.00474       0.000
  j_90373              JUNCTION     0.009    0.024     0  01:43     0.00679      0.0242      -0.088
  j_90374              JUNCTION     0.000    0.016     0  01:45           0     0.00409       0.000
  j_90375              JUNCTION     0.011    0.027     0  01:44      0.0089      0.0175       0.180
  j_90376              JUNCTION     0.002    0.007     0  01:45     0.00156     0.00586       0.000
  j_90377              JUNCTION     0.009    0.020     0  01:50     0.00747      0.0167      -0.424
  j_90378              JUNCTION     0.010    0.025     0  01:45     0.00843      0.0217       0.000
  j_90379              JUNCTION     0.015    0.015     0  01:45      0.0132      0.0132      -0.274
  j_90380              JUNCTION     0.017    0.017     0  01:45      0.0148      0.0148       0.000
  j_90381              JUNCTION     0.010    0.027     0  01:45     0.00892      0.0238       1.057
  j_90382              JUNCTION     0.012    0.227     0  01:45      0.0105       0.335      -0.044
  j_90383              JUNCTION     0.010    0.208     0  01:45     0.00884       0.301      -0.046
  j_90384              JUNCTION     0.006    0.029     0  01:44     0.00531      0.0256       0.815
  j_90385              JUNCTION     0.008    0.023     0  01:45     0.00697      0.0204       0.214
  j_90386              JUNCTION     0.015    0.015     0  01:45      0.0133      0.0133      -0.337
  j_90387              JUNCTION     0.010    0.010     0  01:45     0.00838     0.00838       0.000
  j_90388              JUNCTION     0.006    0.016     0  01:45     0.00513      0.0136       1.974
  j_90389              JUNCTION     0.008    0.157     0  01:45     0.00691       0.214       0.000
  j_90390              JUNCTION     0.004    0.113     0  01:45     0.00388       0.156      -0.031
  j_90391              JUNCTION     0.005    0.044     0  01:45     0.00549      0.0507       0.157
  j_90392              JUNCTION     0.011    0.040     0  01:45      0.0105      0.0452       0.095
  j_90393              JUNCTION     0.018    0.031     0  01:45      0.0172      0.0347      -0.070
  j_90394              JUNCTION     0.006    0.013     0  01:45     0.00544      0.0136       0.012
  j_90395              JUNCTION     0.007    0.010     0  01:45     0.00594     0.00815      -0.075
  j_90396              JUNCTION     0.003    0.003     0  01:42     0.00222     0.00222       0.500
  j_90397              JUNCTION     0.008    0.184     0  01:45     0.00747       0.267      -0.011
  j_90398              JUNCTION     0.009    0.048     0  01:43     0.00849      0.0465      -0.332
  j_90399              JUNCTION     0.010    0.013     0  01:44     0.00832      0.0118       1.713
  j_90400              JUNCTION     0.006    0.014     0  01:50     0.00537      0.0095      -0.021
  j_90401              JUNCTION     0.010    0.016     0  01:50     0.00813      0.0149      -0.056
  j_90402              JUNCTION     0.010    0.018     0  01:50     0.00817      0.0152       0.000
  j_90403              JUNCTION     0.006    0.015     0  01:50     0.00504     0.00913      -0.170
  j_90404              JUNCTION     0.009    0.012     0  01:45     0.00823       0.011       1.330
  j_90405              JUNCTION     0.010    0.034     0  01:43     0.00892      0.0305      -0.003
  j_90406              JUNCTION     0.009    0.029     0  01:44      0.0085       0.023      -0.594
  j_90407              JUNCTION     0.007    0.010     0  01:45     0.00659     0.00769      -1.477
  j_90408              JUNCTION     0.019    0.019     0  01:45      0.0166      0.0176       1.094
  j_90427              JUNCTION     0.020    0.033     0  01:43      0.0176      0.0285       0.000
  j_90428              JUNCTION     0.011    0.025     0  01:49      0.0103       0.019       0.142
  j_90430              JUNCTION     0.006    0.867     0  01:51     0.00518        1.36       0.006
  j_90433              JUNCTION     0.003    0.003     0  01:45     0.00281     0.00281       0.000
  j_90434              JUNCTION     0.007    0.022     0  01:51     0.00582      0.0219       2.174
  j_90435              JUNCTION     0.011    0.028     0  01:50     0.00931      0.0307       0.030
  j_90436              JUNCTION     0.006    0.070     0  01:45     0.00515      0.0655       0.000
  j_90437              JUNCTION     0.014    0.865     0  01:50      0.0119        1.35       0.019
  j_90438              JUNCTION     0.011    0.782     0  01:50     0.00966        1.24       0.014
  j_90439              JUNCTION     0.006    0.040     0  01:50     0.00556      0.0354       0.000
  j_90440              JUNCTION     0.020    0.034     0  01:50      0.0172      0.0259      -0.029
  j_90441              JUNCTION     0.009    0.009     0  01:45     0.00854     0.00854      -0.073
  j_90442              JUNCTION     0.020    0.183     0  01:50      0.0202       0.287       0.052
  j_90443              JUNCTION     0.028    0.739     0  01:50      0.0266        1.19      -0.003
  j_90444              JUNCTION     0.011    0.261     0  01:46     0.00961       0.445       0.002
  j_90445              JUNCTION     0.010    0.034     0  01:45     0.00898      0.0305       0.304
  j_90446              JUNCTION     0.010    0.025     0  01:45     0.00837      0.0216       0.091
[...]
  c_906622                1.00   0.35  0.00  0.00  0.40  0.25  0.00  0.00  0.38  0.00
  c_906631                1.00   0.35  0.00  0.00  0.31  0.00  0.00  0.33  0.00  0.00
  c_906641                1.00   0.35  0.00  0.00  0.34  0.00  0.00  0.30  0.00  0.00
  c_906651                1.00   0.35  0.00  0.00  0.63  0.00  0.00  0.02  0.00  0.00
  c_906701                1.00   0.35  0.00  0.00  0.65  0.00  0.00  0.00  0.00  0.00
  c_906731                1.00   0.35  0.00  0.00  0.45  0.00  0.00  0.20  0.00  0.00
  c_906741                1.00   0.35  0.00  0.00  0.65  0.00  0.00  0.00  0.00  0.00
  c_906742                1.00   0.36  0.00  0.00  0.63  0.00  0.00  0.01  0.09  0.00
  c_906751                1.00   0.37  0.06  0.00  0.56  0.00  0.00  0.00  0.20  0.00
  c_906761                1.00   0.35  0.00  0.00  0.65  0.00  0.00  0.00  0.01  0.00
  c_906771                1.00   0.35  0.00  0.00  0.64  0.00  0.00  0.01  0.01  0.00
  c_906772                1.00   0.35  0.00  0.00  0.64  0.00  0.00  0.01  0.00  0.00
  c_906781                1.00   0.35  0.04  0.00  0.60  0.00  0.00  0.00  0.37  0.00
  c_906791                1.00   0.40  0.13  0.00  0.47  0.00  0.00  0.00  0.36  0.00
  c_906801                1.00   0.36  0.00  0.00  0.47  0.00  0.00  0.17  0.05  0.00
  c_906811                1.00   0.35  0.00  0.00  0.64  0.00  0.00  0.01  0.32  0.00
  c_906821                1.00   0.35  0.07  0.00  0.57  0.00  0.00  0.00  0.51  0.00
  c_906831                1.00   0.36  0.00  0.00  0.32  0.00  0.00  0.32  0.00  0.00
  c_906832                1.00   0.35  0.00  0.00  0.65  0.00  0.00  0.00  0.35  0.00
  c_906841                1.00   0.35  0.00  0.00  0.38  0.00  0.00  0.27  0.01  0.00
  c_906851                1.00   0.35  0.00  0.00  0.00  0.00  0.00  0.65  0.00  0.00
  c_906861                1.00   0.35  0.02  0.00  0.62  0.00  0.00  0.00  0.27  0.00
  c_906862                1.00   0.38  0.12  0.00  0.51  0.00  0.00  0.00  0.32  0.00
  c_906891                1.00   0.35  0.00  0.00  0.01  0.00  0.00  0.64  0.00  0.00
  c_906892                1.00   0.35  0.00  0.00  0.00  0.00  0.00  0.65  0.00  0.00
  c_906901                1.00   0.35  0.00  0.00  0.65  0.00  0.00  0.00  0.51  0.00
  c_906911                1.00   0.35  0.00  0.00  0.00  0.00  0.00  0.65  0.00  0.00
  c_906921                1.00   0.35  0.06  0.00  0.59  0.00  0.00  0.00  0.59  0.00
  c_906931                1.00   0.41  0.59  0.00  0.00  0.00  0.00  0.00  0.00  0.00
  c_906932                1.00   0.35  0.00  0.00  0.00  0.00  0.00  0.65  0.00  0.00
  c_906941                1.00   0.35  0.57  0.00  0.08  0.00  0.00  0.00  0.49  0.00
  c_906951                1.00   0.35  0.00  0.00  0.00  0.00  0.00  0.65  0.00  0.00
  c_906961                1.00   0.35  0.00  0.00  0.65  0.00  0.00  0.00  0.57  0.00
  c_906971                1.00   0.35  0.00  0.00  0.65  0.00  0.00  0.00  0.58  0.00
  c_906981                1.00   0.35  0.00  0.00  0.65  0.00  0.00  0.00  0.52  0.00
  c_906991                1.00   0.35  0.00  0.00  0.65  0.00  0.00  0.00  0.51  0.00
  c_906992                1.00   0.35  0.00  0.00  0.65  0.00  0.00  0.00  0.48  0.00
  c_907001                1.00   0.35  0.00  0.00  0.00  0.00  0.00  0.65  0.00  0.00
  c_907011                1.00   0.35  0.00  0.00  0.00  0.00  0.00  0.65  0.00  0.00
  c_907021                1.00   0.35  0.00  0.00  0.00  0.00  0.00  0.65  0.00  0.00
  c_907031                1.00   0.35  0.00  0.00  0.65  0.00  0.00  0.00  0.19  0.00
  c_907032                1.00   0.35  0.00  0.00  0.36  0.00  0.00  0.28  0.10  0.00
  c_907033                1.00   0.35  0.00  0.00  0.55  0.00  0.00  0.10  0.11  0.00
  c_907041                1.00   0.35  0.00  0.00  0.36  0.00  0.00  0.29  0.01  0.00
  c_907042                1.00   0.35  0.18  0.00  0.47  0.00  0.00  0.00  0.28  0.00
  c_907051                1.00   0.61  0.20  0.00  0.17  0.00  0.02  0.00  0.02  0.00
  c_907061                1.00   0.35  0.00  0.00  0.65  0.00  0.00  0.00  0.01  0.00
  c_907062                1.00   0.35  0.00  0.00  0.65  0.00  0.00  0.00  0.26  0.00
  c_907071                1.00   0.35  0.00  0.00  0.33  0.00  0.00  0.32  0.00  0.00
  c_907081                1.00   0.35  0.00  0.00  0.26  0.00  0.00  0.38  0.07  0.00
  c_907091                1.00   0.35  0.00  0.00  0.65  0.00  0.00  0.00  0.43  0.00
  c_907101                1.00   0.35  0.08  0.00  0.57  0.00  0.00  0.00  0.48  0.00
  c_907241                1.00   0.35  0.00  0.00  0.65  0.00  0.00  0.00  0.00  0.00
  c_907242                1.00   0.35  0.00  0.00  0.65  0.00  0.00  0.00  0.00  0.00
  c_907251                1.00   0.35  0.00  0.00  0.56  0.00  0.00  0.09  0.43  0.00
  c_907261                1.00   0.35  0.19  0.00  0.46  0.00  0.00  0.00  0.48  0.00
  c_907271                1.00   0.54  0.02  0.00  0.44  0.00  0.00  0.00  0.52  0.00
  c_907281                1.00   0.35  0.58  0.00  0.04  0.00  0.03  0.00  0.01  0.00
  c_907291                1.00   0.35  0.09  0.00  0.56  0.00  0.00  0.00  0.59  0.00
  c_907301                1.00   0.35  0.00  0.00  0.65  0.00  0.00  0.00  0.52  0.00
  c_907311                1.00   0.35  0.01  0.00  0.63  0.00  0.00  0.00  0.53  0.00
  c_907321                1.00   0.37  0.17  0.00  0.46  0.00  0.00  0.00  0.55  0.00
  c_907331                1.00   0.35  0.00  0.00  0.65  0.00  0.00  0.00  0.36  0.00
  c_907332                1.00   0.35  0.00  0.00  0.55  0.00  0.00  0.10  0.13  0.00
  c_912721                1.00   1.00  0.00  0.00  0.00  0.00  0.00  0.00  0.00  0.00
  c_912731                1.00   1.00  0.00  0.00  0.00  0.00  0.00  0.00  0.00  0.00
  c_912741                1.00   1.00  0.00  0.00  0.00  0.00  0.00  0.00  0.00  0.00
  c_912751                1.00   1.00  0.00  0.00  0.00  0.00  0.00  0.00  0.00  0.00
  c_912761                1.00   1.00  0.00  0.00  0.00  0.00  0.00  0.00  0.00  0.00
  c_912771                1.00   1.00  0.00  0.00  0.00  0.00  0.00  0.00  0.00  0.00
  c_912781                1.00   1.00  0.00  0.00  0.00  0.00  0.00  0.00  0.00  0.00
  c_912791                1.00   1.00  0.00  0.00  0.00  0.00  0.00  0.00  0.00  0.00
  c_912931                1.00   0.45  0.23  0.00  0.32  0.00  0.00  0.00  0.44  0.00
  c_912932                1.00   0.45  0.00  0.00  0.17  0.00  0.00  0.37  0.00  0.00
  c_912941                1.00   1.00  0.00  0.00  0.00  0.00  0.00  0.00  0.00  0.00
  
  
  *************************
  Conduit Surcharge Summary
  *************************
  
  ----------------------------------------------------------------------------
                                                           Hours        Hours 
                         --------- Hours Full --------   Above Full   Capacity
  Conduit                Both Ends  Upstream  Dnstream   Normal Flow   Limited
  ----------------------------------------------------------------------------
  c_903642                    0.17      0.17      0.18      0.33         0.01
  c_903651                    0.17      0.17      0.17      0.01         0.06
  c_903671                    0.01      0.01      0.10      0.01         0.01
  c_903672                    0.04      0.04      0.04      0.15         0.02
  c_903681                    0.02      0.02      0.04      0.01         0.01
  c_903701                    0.01      0.01      0.12      0.01         0.01
  c_903702                    0.01      0.01      0.12      0.01         0.01
  c_903711                    0.08      0.08      0.19      0.01         0.01
  c_903712                    0.10      0.10      0.17      0.03         0.01
  c_903731                    0.01      0.01      0.19      0.01         0.01
  c_903732                    0.01      0.01      0.18      0.01         0.01
  c_903751                    0.01      0.01      0.01      0.01         0.01
  c_903752                    0.01      0.01      0.05      0.01         0.01
  c_903831                    0.01      0.01      0.04      0.01         0.01
  c_903911                    0.01      0.01      0.01      0.04         0.01
  c_903972                    0.01      0.01      0.17      0.01         0.01
  c_903981                    0.18      0.18      0.32      0.01         0.01
  c_904051                    0.06      0.06      0.18      0.01         0.01
  c_904062                    0.01      0.01      0.06      0.01         0.01
  c_904281                    0.03      0.03      0.08      0.01         0.01
  c_904381                    0.01      0.01      0.01      0.33         0.01
  c_904421                    0.01      0.01      0.02      0.57         0.01
  c_904441                    0.18      0.18      0.30      0.01         0.01
  c_904512                    0.11      0.11      0.18      0.01         0.01
  c_904531                    0.08      0.08      0.09      0.03         0.01
  c_904532                    0.09      0.09      0.11      0.01         0.01
  c_904571                    0.01      0.01      0.01      0.19         0.01
  c_904592                    0.01      0.01      0.04      0.32         0.01
  c_904611                    0.14      0.14      0.17      0.01         0.01
  c_904612                    0.01      0.01      0.07      0.01         0.01
  c_904621                    0.01      0.01      0.01      0.17         0.01
  c_904641                    0.07      0.07      0.18      0.01         0.01
  c_904651                    0.01      0.01      0.07      0.01         0.01
  c_904691                    0.01      0.01      0.02      0.04         0.01
  c_904701                    0.03      0.03      0.17      0.01         0.01
  c_904791                    0.01      0.01      0.11      0.01         0.01
  c_904801                    0.01      0.01      0.01      0.01         0.01
  c_904811                    0.01      0.01      0.01      0.01         0.01
  c_904821                    0.11      0.11      0.17      0.01         0.01
  c_904822                    0.10      0.10      0.17      0.01         0.01
  c_904831                    0.01      0.01      0.07      0.01         0.01
  c_904861                    0.19      0.19      0.22      0.01         0.01
  c_904862                    0.01      0.01      0.10      0.01         0.01
  c_904871                    0.18      0.18      0.28      0.01         0.01
  c_904881                    0.28      0.28      0.36      0.01         0.01
  c_904882                    0.02      0.04      0.02      0.11         0.02
  c_904921                    0.32      0.32      0.37      0.05         0.06
  c_904922                    0.01      0.01      0.21      0.01         0.01
  c_904951                    0.47      0.47      0.51      0.01         0.01
  c_904952                    0.62      0.62      0.63      0.01         0.01
  c_904961                    0.01      0.01      0.21      0.01         0.01
  c_904982                    0.01      0.01      0.04      0.01         0.01
  c_904991                    0.17      0.17      0.18      0.22         0.15
  c_905001                    0.01      0.01      0.17      0.01         0.01
  c_905051                    0.27      0.27      0.41      0.01         0.01
  c_905061                    0.27      0.27      0.30      0.01         0.01
  c_905071                    0.03      0.03      0.30      0.01         0.01
  c_905072                    0.01      0.01      0.03      0.01         0.01
  c_905081                    0.19      0.19      0.26      0.01         0.01
  c_905091                    0.01      0.01      0.11      0.01         0.01
  c_905111                    0.01      0.01      0.19      0.01         0.01
  c_905121                    0.38      0.38      0.42      0.01         0.01
  c_905131                    0.01      0.01      0.25      0.01         0.01
  c_905161                    0.01      0.01      0.01      0.25         0.01
  c_905171                    0.18      0.18      0.24      0.01         0.01
  c_905172                    0.01      0.01      0.01      0.01         0.01
  c_905182                    0.14      0.14      0.19      0.25         0.01
  c_905191                    0.01      0.01      0.10      0.01         0.01
  c_905192                    0.17      0.17      0.19      0.01         0.01
  c_905241                    0.27      0.27      0.39      0.01         0.01
  c_905251                    0.13      0.13      0.27      0.01         0.01
  c_905261                    0.01      0.01      0.13      0.01         0.01
  c_905521                    0.01      0.01      0.01      0.38         0.01
  c_905541                    0.02      0.02      0.05      0.01         0.01
  c_905551                    0.01      0.01      0.01      0.01         0.01
  c_905561                    0.04      0.04      0.05      0.01         0.01
  c_905571                    0.04      0.04      0.04      0.46         0.01
  c_905572                    0.03      0.03      0.05      0.01         0.01
  c_905581                    0.03      0.03      0.28      0.01         0.01
  c_905591                    0.13      0.13      0.33      0.01         0.01
  c_905601                    0.34      0.34      0.36      0.01         0.01
  c_905602                    0.01      0.01      0.34      0.01         0.01
  c_905611                    0.06      0.06      0.11      0.01         0.01
  c_905621                    0.06      0.06      0.17      0.01         0.01
  c_905622                    0.01      0.01      0.17      0.01         0.01
  c_905631                    0.14      0.14      0.22      0.01         0.01
  c_905632                    0.30      0.30      0.32      1.00         0.01
  c_905641                    0.03      0.03      0.15      0.01         0.01
  c_905651                    0.01      0.01      0.17      0.01         0.01
  c_905711                    0.01      0.01      0.05      0.01         0.01
  c_905721                    0.23      0.23      0.25      0.03         0.04
  c_905722                    0.06      0.06      0.30      0.01         0.01
  c_905731                    0.01      0.01      0.01      0.07         0.01
  c_905732                    0.01      0.01      0.20      0.01         0.01
  c_905741                    0.63      0.63      0.69      0.01         0.01
  c_905751                    0.66      0.66      0.82      0.01         0.01
  c_905752                    0.30      0.30      0.36      0.02         0.02
  c_905761                    0.01      0.01      0.01      0.12         0.01
  c_905781                    0.25      0.25      0.31      0.01         0.01
  c_905791                    0.12      0.12      0.25      0.01         0.01
  c_905821                    0.01      0.01      0.01      0.24         0.01
  c_905851                    0.25      0.25      0.34      0.01         0.01
  c_905852                    0.01      0.01      0.22      0.01         0.01
  c_905861                    0.22      0.26      0.22      1.06         0.22
  c_905862                    0.01      0.01      0.16      0.01         0.01
  c_905871                    0.24      0.24      0.26      0.01         0.01
  c_905881                    0.01      0.01      0.33      0.01         0.01
  c_905901                    0.01      0.01      0.19      0.01         0.01
  c_905921                    0.48      0.48      0.54      0.01         0.01
  c_905931                    0.24      0.26      0.24      1.00         0.24
  c_905941                    0.11      0.11      0.26      0.01         0.01
  c_905942                    0.50      0.50      0.54      0.46         0.01
  c_905951                    0.01      0.01      0.22      0.01         0.01
  c_905961                    0.01      0.01      0.21      0.01         0.01
  c_906041                    0.01      0.01      0.09      0.01         0.01
  c_906051                    0.06      0.06      0.23      0.01         0.01
  c_906052                    0.01      0.01      0.12      0.01         0.01
  c_906061                    0.15      0.15      0.23      0.01         0.01
  c_906071                    0.12      0.12      0.19      0.01         0.01
  c_906081                    0.05      0.05      0.12      0.01         0.01
  c_906082                    0.01      0.01      0.05      0.01         0.01
  c_906111                    0.01      0.01      0.13      0.01         0.01
  c_906201                    0.01      0.01      0.01      0.95         0.01
  c_906211                    0.01      0.01      0.14      0.01         0.01
  c_906241                    0.52      0.52      0.64      0.01         0.01
  c_906261                    0.43      0.43      0.59      0.01         0.01
  c_906271                    0.59      0.59      0.62      0.01         0.01
  c_906272                    0.01      0.01      0.01      0.01         0.01
  c_906281                    0.01      0.01      0.12      0.01         0.01
  c_906322                    0.01      0.01      0.01      0.44         0.01
  c_906331                    0.01      0.01      0.02      0.01         0.01
  c_906341                    0.02      0.02      0.28      0.01         0.01
  c_906351                    0.36      0.36      0.43      0.01         0.01
  c_906352                    0.43      0.43      0.45      0.01         0.01
  c_906361                    0.18      0.18      0.40      0.01         0.01
  c_906381                    0.05      0.05      0.20      0.01         0.01
  c_906391                    0.01      0.01      0.09      0.01         0.01
  c_906411                    0.01      0.01      0.12      0.01         0.01
  c_906421                    0.01      0.01      0.01      0.01         0.01
  c_906511                    0.01      0.01      0.22      0.01         0.01
  c_906561                    0.01      0.01      0.01      0.30         0.01
  c_906563                    0.01      0.01      0.14      0.01         0.01
  c_906631                    0.13      0.13      0.13      0.25         0.10
  c_906651                    0.77      0.77      0.77      0.06         0.08
  c_906731                    0.50      0.51      0.50      0.25         0.17
  c_906741                    0.01      0.01      0.01      0.59         0.01
  c_906771                    0.01      0.01      0.05      0.01         0.01
  c_906772                    0.01      0.01      0.05      0.01         0.01
  c_906781                    0.01      0.01      0.43      0.01         0.01
  c_906821                    0.01      0.01      0.41      0.01         0.01
  c_906841                    0.39      0.39      0.40      0.01         0.01
  c_907031                    0.18      0.18      0.22      0.01         0.01
  c_907032                    0.13      0.13      0.33      0.01         0.01
  c_907033                    0.22      0.22      0.28      0.01         0.01
  c_907051                    0.01      0.01      0.07      0.01         0.01
  c_907061                    0.38      0.38      0.46      0.01         0.01
  c_907062                    0.38      0.38      0.48      0.01         0.01
  c_907071                    0.22      0.22      0.24      0.01         0.01
  c_907081                    0.01      0.01      0.18      0.01         0.01
  c_907091                    0.08      0.08      0.37      0.01         0.01
  c_907101                    0.01      0.01      0.08      0.01         0.01
  c_907242                    0.01      0.01      0.01      0.07         0.01
  c_907251                    0.01      0.01      0.19      0.01         0.01
  c_907331                    0.01      0.01      0.12      0.01         0.01
  c_907332                    0.12      0.12      0.18      0.01         0.01
  

  Analysis begun on:  Sun Jun 12 01:38:01 2022
  Analysis ended on:  Sun Jun 12 01:38:07 2022
  Total elapsed time: 00:00:06