
  EPA STORM WATER MANAGEMENT MODEL - VERSION 5.1 (Build 5.1.015)
  --------------------------------------------------------------

  WARNING 04: minimum elevation drop used for Conduit c_903642
  WARNING 04: minimum elevation drop used for Conduit c_903651
  WARNING 04: minimum elevation drop used for Conduit c_903672
  WARNING 04: minimum elevation drop used for Conduit c_905571
  WARNING 04: minimum elevation drop used for Conduit c_905632
  WARNING 04: minimum elevation drop used for Conduit c_905821
  WARNING 04: minimum elevation drop used for Conduit c_905861
  WARNING 04: minimum elevation drop used for Conduit c_905931
  WARNING 04: minimum elevation drop used for Conduit c_906201
  WARNING 04: minimum elevation drop used for Conduit c_906322
  WARNING 04: minimum elevation drop used for Conduit c_906631
  WARNING 04: minimum elevation drop used for Conduit c_906641
  WARNING 04: minimum elevation drop used for Conduit c_906651
  WARNING 04: minimum elevation drop used for Conduit c_906731
  WARNING 04: minimum elevation drop used for Conduit c_906741
  WARNING 04: minimum elevation drop used for Conduit c_907242
  
  *********************
  Rainfall File Summary
  *********************
  Station    First        Last         Recording   Periods    Periods    Periods
  ID         Date         Date         Frequency  w/Precip    Missing    Malfunc.
  -------------------------------------------------------------------------------
  R1         01/23/2014   01/23/2014       5 min        81          0          0
  R1         01/23/2014   01/23/2014       5 min        81          0          0
  R1         01/23/2014   01/23/2014       5 min        81          0          0

  
  *********************************************************
  NOTE: The summary statistics displayed in this report are
  based on results found at every computational time step,  
  not just on results from each reporting time step.
  *********************************************************
  
  ****************
  Analysis Options
  ****************
  Flow Units ............... CMS
  Process Models:
    Rainfall/Runoff ........ YES
    RDII ................... NO
    Snowmelt ............... NO
    Groundwater ............ NO
    Flow Routing ........... YES
    Ponding Allowed ........ NO
    Water Quality .......... NO
  Infiltration Method ...... HORTON
  Flow Routing Method ...... DYNWAVE
  Surcharge Method ......... EXTRAN
  Starting Date ............ 01/23/2014 00:00:00
  Ending Date .............. 01/23/2014 19:05:00
  Antecedent Dry Days ...... 0.0
  Report Time Step ......... 00:05:00
  Wet Time Step ............ 00:01:00
  Dry Time Step ............ 00:10:00
  Routing Time Step ........ 1.00 sec
  Variable Time Step ....... YES
  Maximum Trials ........... 12
  Number of Threads ........ 2
  Head Tolerance ........... 0.000200 m
  
  
  **************************        Volume         Depth
  Runoff Quantity Continuity     hectare-m            mm
  **************************     ---------       -------
  Total Precipitation ......         0.463        16.667
  Evaporation Loss .........         0.008         0.277
  Infiltration Loss ........         0.018         0.655
  Surface Runoff ...........         0.345        12.417
  Final Storage ............         0.097         3.483
  Continuity Error (%) .....        -0.990
  
  
  **************************        Volume        Volume
  Flow Routing Continuity        hectare-m      10^6 ltr
  **************************     ---------     ---------
  Dry Weather Inflow .......         0.000         0.000
  Wet Weather Inflow .......         0.345         3.445
  Groundwater Inflow .......         0.000         0.000
  RDII Inflow ..............         0.000         0.000
  External Inflow ..........         0.000         0.000
  External Outflow .........         0.345         3.450
  Flooding Loss ............         0.000         0.000
  Evaporation Loss .........         0.000         0.000
  Exfiltration Loss ........         0.000         0.000
  Initial Stored Volume ....         0.000         0.000
  Final Stored Volume ......         0.001         0.006
  Continuity Error (%) .....        -0.298
  
  
  *************************
  Highest Continuity Errors
  *************************
  Node j_90618 (2.51%)
  Node j_90650 (2.27%)
  Node j_90457 (2.11%)
  Node j_90638 (1.94%)
  Node j_90388 (1.75%)
  
  
  ***************************
  Time-Step Critical Elements
  ***************************
  Link c_904312 (5.35%)
  
  
  ********************************
  Highest Flow Instability Indexes
  ********************************
  All links are stable.
  
  
  *************************
  Routing Time Step Summary
  *************************
  Minimum Time Step           :     0.23 sec
  Average Time Step           :     0.98 sec
  Maximum Time Step           :     1.00 sec
  Percent in Steady State     :     0.44
  Average Iterations per Step :     2.16
  Percent Not Converging      :     1.32
  Time Step Frequencies       :
      1.000 -  0.871 sec      :    95.02 %
      0.871 -  0.758 sec      :     0.62 %
      0.758 -  0.660 sec      :     0.72 %
      0.660 -  0.574 sec      :     1.05 %
      0.574 -  0.500 sec      :     2.59 %
  
  
  ***************************
  Subcatchment Runoff Summary
  ***************************
  
  ------------------------------------------------------------------------------------------------------------------------------
                            Total      Total      Total      Total     Imperv       Perv      Total       Total     Peak  Runoff
                           Precip      Runon       Evap      Infil     Runoff     Runoff     Runoff      Runoff   Runoff   Coeff
  Subcatchment                 mm         mm         mm         mm         mm         mm         mm    10^6 ltr      CMS
  ------------------------------------------------------------------------------------------------------------------------------
  sub_9006F                 16.67       0.00       0.28       0.54       7.21       4.94      12.14        0.00     0.00   0.729
  sub_90334                 16.67       0.00       0.28       1.43       1.31      13.02      14.32        0.02     0.01   0.859
  sub_90335                 16.67       0.00       0.28       0.33       8.63       2.99      11.62        0.02     0.02   0.697
  sub_90336                 16.67       0.00       0.28       1.10       3.49      10.03      13.52        0.00     0.00   0.811
  sub_90363                 16.67       0.00       0.28       0.33       8.61       3.02      11.63        0.03     0.02   0.698
  sub_90364                 16.67       0.00       0.28       1.22       2.75      11.04      13.79        0.01     0.01   0.827
  sub_90365                 16.67       0.00       0.28       1.63       0.00      14.81      14.81        0.00     0.00   0.888
  sub_90366                 16.67       0.00       0.28       0.55       7.16       5.00      12.16        0.01     0.01   0.730
  sub_90367                 16.67       0.00       0.28       0.93       4.66       8.43      13.09        0.01     0.01   0.785
  sub_90369                 16.67       0.00       0.28       0.66       6.41       6.03      12.44        0.02     0.02   0.746
  sub_90370                 16.67       0.00       0.28       0.45       7.85       4.06      11.91        0.01     0.01   0.714
  sub_90371                 16.67       0.00       0.28       0.23       9.27       2.12      11.38        0.01     0.01   0.683
  sub_90372                 16.67       0.00       0.28       1.03       3.98       9.35      13.34        0.01     0.00   0.800
  sub_90373                 16.67       0.00       0.28       0.07      10.34       0.64      10.99        0.01     0.01   0.659
  sub_90375                 16.67       0.00       0.28       0.33       8.65       2.96      11.61        0.01     0.01   0.697
  sub_90376                 16.67       0.00       0.28       0.58       6.95       5.29      12.24        0.00     0.00   0.734
  sub_90377                 16.67       0.00       0.28       0.34       8.53       3.13      11.66        0.01     0.01   0.699
  sub_90378                 16.67       0.00       0.28       0.46       7.76       4.18      11.94        0.01     0.01   0.716
  sub_90379                 16.67       0.00       0.28       0.77       5.69       7.01      12.70        0.01     0.01   0.762
  sub_90380                 16.67       0.00       0.28       0.70       6.16       6.38      12.53        0.02     0.01   0.752
  sub_90381                 16.67       0.00       0.28       0.71       6.10       6.45      12.55        0.01     0.01   0.753
  sub_90382                 16.67       0.00       0.28       0.59       6.90       5.36      12.26        0.01     0.01   0.735
  sub_90383                 16.67       0.00       0.28       0.50       7.48       4.57      12.05        0.01     0.01   0.723
  sub_90384                 16.67       0.00       0.28       0.96       4.42       8.75      13.17        0.01     0.00   0.790
  sub_90385                 16.67       0.00       0.28       0.43       7.99       3.87      11.86        0.01     0.01   0.711
  sub_90386                 16.67       0.00       0.28       0.78       5.64       7.08      12.72        0.01     0.01   0.763
  sub_90387                 16.67       0.00       0.28       0.61       6.78       5.53      12.30        0.01     0.01   0.738
  sub_90388                 16.67       0.00       0.28       0.60       6.82       5.47      12.29        0.01     0.00   0.737
  sub_90389                 16.67       0.00       0.28       0.67       6.38       6.07      12.45        0.01     0.01   0.747
  sub_90390                 16.67       0.00       0.28       0.84       5.24       7.63      12.87        0.00     0.00   0.772
  sub_90391                 16.67       0.00       0.28       1.63       0.00      14.81      14.81        0.01     0.00   0.888
  sub_90392                 16.67       0.00       0.28       1.04       3.90       9.47      13.37        0.01     0.01   0.802
  sub_90393                 16.67       0.00       0.28       1.03       3.99       9.35      13.33        0.02     0.01   0.800
  sub_90394                 16.67       0.00       0.28       0.98       4.33       8.88      13.21        0.01     0.00   0.793
  sub_90395                 16.67       0.00       0.28       0.38       8.30       3.44      11.74        0.01     0.01   0.704
  sub_90396                 16.67       0.00       0.28       0.00      10.81       0.00      10.81        0.00     0.00   0.649
  sub_90397                 16.67       0.00       0.28       0.88       4.98       7.99      12.97        0.01     0.01   0.778
  sub_90398                 16.67       0.00       0.28       0.92       4.72       8.34      13.06        0.01     0.01   0.784
  sub_90399                 16.67       0.00       0.28       0.51       7.40       4.68      12.07        0.01     0.01   0.724
  sub_90400                 16.67       0.00       0.28       0.61       6.76       5.55      12.31        0.01     0.00   0.739
  sub_90401                 16.67       0.00       0.28       0.36       8.43       3.27      11.70        0.01     0.01   0.702
  sub_90402                 16.67       0.00       0.28       0.38       8.29       3.46      11.75        0.01     0.01   0.705
  sub_90403                 16.67       0.00       0.28       0.62       6.73       5.59      12.32        0.01     0.00   0.739
  sub_90404                 16.67       0.00       0.28       0.65       6.52       5.88      12.40        0.01     0.01   0.744
  sub_90405                 16.67       0.00       0.28       0.71       6.10       6.45      12.55        0.01     0.01   0.753
  sub_90406                 16.67       0.00       0.28       0.86       5.11       7.81      12.92        0.01     0.01   0.775
  sub_90407                 16.67       0.00       0.28       0.84       5.21       7.67      12.88        0.01     0.01   0.773
  sub_90408                 16.67       0.00       0.28       0.54       7.23       4.90      12.14        0.02     0.01   0.728
  sub_90427                 16.67       0.00       0.28       0.63       6.61       5.75      12.36        0.02     0.02   0.742
  sub_90428                 16.67       0.00       0.28       0.77       5.71       6.99      12.70        0.01     0.01   0.762
  sub_90430                 16.67       0.00       0.28       0.37       8.39       3.32      11.71        0.01     0.00   0.703
  sub_90431                 16.67       0.00       0.28       0.59       6.90       5.36      12.26        0.01     0.01   0.736
  sub_90433                 16.67       0.00       0.28       0.82       5.41       7.40      12.81        0.00     0.00   0.769
  sub_90434                 16.67       0.00       0.28       0.29       8.88       2.64      11.53        0.01     0.01   0.692
  sub_90435                 16.67       0.00       0.28       0.52       7.38       4.70      12.08        0.01     0.01   0.725
  sub_90436                 16.67       0.00       0.28       0.26       9.08       2.37      11.45        0.01     0.00   0.687
  sub_90437                 16.67       0.00       0.28       0.41       8.09       3.73      11.82        0.01     0.01   0.709
  sub_90438                 16.67       0.00       0.28       0.58       6.96       5.28      12.24        0.01     0.01   0.734
  sub_90439                 16.67       0.00       0.28       0.59       6.92       5.33      12.25        0.01     0.00   0.735
  sub_90440                 16.67       0.00       0.28       0.66       6.40       6.04      12.44        0.02     0.02   0.747
  sub_90441                 16.67       0.00       0.28       1.09       3.60       9.87      13.48        0.01     0.01   0.809
  sub_90442                 16.67       0.00       0.28       1.28       2.34      11.60      13.94        0.02     0.02   0.836
  sub_90443                 16.67       0.00       0.28       0.95       4.50       8.64      13.14        0.03     0.02   0.789
  sub_90444                 16.67       0.00       0.28       0.46       7.78       4.16      11.94        0.01     0.01   0.716
  sub_90445                 16.67       0.00       0.28       0.80       5.48       7.31      12.78        0.01     0.01   0.767
  sub_90446                 16.67       0.00       0.28       0.49       7.58       4.42      12.01        0.01     0.01   0.720
  sub_90447                 16.67       0.00       0.28       0.76       5.79       6.88      12.67        0.01     0.01   0.760
  sub_90448                 16.67       0.00       0.28       0.70       6.14       6.40      12.54        0.02     0.01   0.752
  sub_90449                 16.67       0.00       0.28       0.66       6.41       6.03      12.44        0.01     0.01   0.746
  sub_90450                 16.67       0.00       0.28       0.56       7.08       5.11      12.19        0.00     0.00   0.731
  sub_90451                 16.67       0.00       0.28       0.71       6.08       6.49      12.56        0.01     0.01   0.754
  sub_90452                 16.67       0.00       0.28       0.92       4.73       8.33      13.06        0.01     0.00   0.784
  sub_90453                 16.67       0.00       0.28       0.47       7.69       4.28      11.97        0.01     0.01   0.718
  sub_90454                 16.67       0.00       0.28       0.63       6.60       5.77      12.37        0.01     0.01   0.742
  sub_90455                 16.67       0.00       0.28       0.35       8.50       3.17      11.67        0.01     0.01   0.700
  sub_90456                 16.67       0.00       0.28       0.95       4.54       8.59      13.13        0.02     0.01   0.788
  sub_90457                 16.67       0.00       0.28       0.93       4.64       8.45      13.09        0.02     0.02   0.785
  sub_90459                 16.67       0.00       0.28       1.13       3.33      10.25      13.58        0.02     0.02   0.815
  sub_90460                 16.67       0.00       0.28       1.51       0.78      13.74      14.52        0.01     0.01   0.871
  sub_90461                 16.67       0.00       0.28       0.54       7.21       4.94      12.14        0.00     0.00   0.729
  sub_90462                 16.67       0.00       0.28       0.77       5.73       6.96      12.69        0.01     0.01   0.761
  sub_90463                 16.67       0.00       0.28       0.39       8.20       3.57      11.78        0.01     0.01   0.707
  sub_90464                 16.67       0.00       0.28       0.66       6.47       5.95      12.42        0.01     0.01   0.745
  sub_90465                 16.67       0.00       0.28       0.35       8.50       3.17      11.67        0.01     0.01   0.700
  sub_90466                 16.67       0.00       0.28       0.61       6.76       5.55      12.31        0.01     0.01   0.739
  sub_90467                 16.67       0.00       0.28       0.30       8.83       2.72      11.55        0.02     0.02   0.693
  sub_90468                 16.67       0.00       0.28       0.58       6.97       5.26      12.23        0.01     0.01   0.734
  sub_90469                 16.67       0.00       0.28       0.35       8.50       3.17      11.67        0.01     0.01   0.700
  sub_90470                 16.67       0.00       0.28       0.60       6.84       5.45      12.28        0.01     0.01   0.737
  sub_90471                 16.67       0.00       0.28       0.50       7.52       4.51      12.03        0.01     0.01   0.722
  sub_90477                 16.67       0.00       0.28       0.34       8.56       3.08      11.65        0.02     0.01   0.699
  sub_90478                 16.67       0.00       0.28       0.39       8.20       3.57      11.78        0.01     0.01   0.707
  sub_90479                 16.67       0.00       0.28       0.93       4.61       8.49      13.10        0.01     0.01   0.786
  sub_90480                 16.67       0.00       0.28       0.46       7.76       4.18      11.94        0.01     0.01   0.716
  sub_90481                 16.67       0.00       0.28       0.58       6.94       5.30      12.24        0.01     0.01   0.735
  sub_90482                 16.67       0.00       0.28       0.61       6.78       5.52      12.30        0.01     0.01   0.738
  sub_90483                 16.67       0.00       0.28       1.22       2.70      11.10      13.81        0.01     0.01   0.828
  sub_90484                 16.67       0.00       0.28       0.51       7.43       4.63      12.06        0.01     0.01   0.724
  sub_90485                 16.67       0.00       0.28       0.92       4.72       8.34      13.06        0.02     0.01   0.784
  sub_90486                 16.67       0.00       0.28       0.68       6.29       6.19      12.48        0.02     0.01   0.749
  sub_90487                 16.67       0.00       0.28       0.58       6.94       5.30      12.24        0.02     0.02   0.735
  sub_90488                 16.67       0.00       0.28       0.71       6.09       6.47      12.56        0.02     0.01   0.754
  sub_90489                 16.67       0.00       0.28       0.36       8.42       3.27      11.70        0.01     0.01   0.702
  sub_90490                 16.67       0.00       0.28       0.32       8.67       2.93      11.60        0.01     0.01   0.696
  sub_90491                 16.67       0.00       0.28       0.38       8.29       3.45      11.74        0.01     0.01   0.705
  sub_90492                 16.67       0.00       0.28       0.51       7.42       4.64      12.07        0.01     0.01   0.724
  sub_90493                 16.67       0.00       0.28       0.35       8.51       3.16      11.67        0.01     0.01   0.700
  sub_90494                 16.67       0.00       0.28       0.33       8.60       3.02      11.63        0.01     0.01   0.698
  sub_90495                 16.67       0.00       0.28       0.52       7.35       4.74      12.09        0.01     0.01   0.725
  sub_90496                 16.67       0.00       0.28       0.35       8.51       3.16      11.67        0.01     0.01   0.700
  sub_90497                 16.67       0.00       0.28       0.31       8.74       2.84      11.58        0.01     0.01   0.695
  sub_90498                 16.67       0.00       0.28       0.59       6.92       5.33      12.25        0.02     0.02   0.735
  sub_90499                 16.67       0.00       0.28       1.02       4.03       9.29      13.32        0.02     0.01   0.799
  sub_90500                 16.67       0.00       0.28       0.75       5.84       6.82      12.65        0.02     0.01   0.759
  sub_90501                 16.67       0.00       0.28       0.33       8.63       2.99      11.62        0.01     0.01   0.697
  sub_90502                 16.67       0.00       0.28       0.65       6.53       5.86      12.39        0.01     0.01   0.744
  sub_90503                 16.67       0.00       0.28       0.36       8.41       3.29      11.70        0.01     0.01   0.702
  sub_90504                 16.67       0.00       0.28       0.34       8.58       3.06      11.64        0.01     0.01   0.698
  sub_90505                 16.67       0.00       0.28       0.39       8.20       3.58      11.78        0.01     0.01   0.707
  sub_90506                 16.67       0.00       0.28       0.43       7.96       3.91      11.87        0.01     0.01   0.712
  sub_90507                 16.67       0.00       0.28       0.45       7.82       4.10      11.92        0.01     0.01   0.715
  sub_90508                 16.67       0.00       0.28       0.44       7.91       3.97      11.88        0.01     0.01   0.713
  sub_90509                 16.67       0.00       0.28       0.90       4.82       8.20      13.03        0.01     0.01   0.782
  sub_90510                 16.67       0.00       0.28       0.41       8.11       3.70      11.81        0.01     0.01   0.709
  sub_90511                 16.67       0.00       0.28       0.70       6.18       6.35      12.52        0.01     0.00   0.751
  sub_90512                 16.67       0.00       0.28       0.46       7.74       4.21      11.95        0.01     0.01   0.717
  sub_90513                 16.67       0.00       0.28       0.32       8.71       2.88      11.59        0.02     0.02   0.695
  sub_90514                 16.67       0.00       0.28       0.42       8.02       3.83      11.85        0.01     0.01   0.711
  sub_90515                 16.67       0.00       0.28       0.74       5.91       6.72      12.63        0.01     0.01   0.758
  sub_90516                 16.67       0.00       0.28       1.03       3.96       9.38      13.34        0.01     0.01   0.801
  sub_90517                 16.67       0.00       0.28       0.75       5.86       6.79      12.64        0.01     0.01   0.759
  sub_90518                 16.67       0.00       0.28       0.22       9.33       2.03      11.36        0.01     0.01   0.682
  sub_90519                 16.67       0.00       0.28       0.83       5.30       7.54      12.85        0.03     0.02   0.771
  sub_90520                 16.67       0.00       0.28       0.81       5.45       7.34      12.79        0.02     0.01   0.768
  sub_90521                 16.67       0.00       0.28       0.48       7.65       4.33      11.98        0.01     0.01   0.719
  sub_90522                 16.67       0.00       0.28       0.38       8.28       3.47      11.75        0.01     0.00   0.705
  sub_90523                 16.67       0.00       0.28       0.47       7.67       4.30      11.97        0.01     0.01   0.718
  sub_90524                 16.67       0.00       0.28       0.80       5.54       7.23      12.76        0.02     0.02   0.766
  sub_90525                 16.67       0.00       0.28       1.00       4.17       9.10      13.27        0.03     0.02   0.796
  sub_90526                 16.67       0.00       0.28       0.80       5.48       7.31      12.78        0.01     0.01   0.767
  sub_90527                 16.67       0.00       0.28       1.04       3.92       9.44      13.36        0.01     0.01   0.801
  sub_90549                 16.67       0.00       0.28       0.75       5.81       6.85      12.66        0.01     0.01   0.760
  sub_90550                 16.67       0.00       0.28       0.00      10.81       0.00      10.81        0.00     0.00   0.649
  sub_90551                 16.67       0.00       0.28       0.88       4.96       8.01      12.97        0.01     0.01   0.778
  sub_90552                 16.67       0.00       0.28       0.36       8.42       3.28      11.70        0.03     0.03   0.702
  sub_90553                 16.67       0.00       0.28       0.85       5.21       7.68      12.88        0.01     0.01   0.773
  sub_90554                 16.67       0.00       0.28       0.80       5.48       7.31      12.78        0.01     0.01   0.767
  sub_90555                 16.67       0.00       0.28       0.98       4.30       8.92      13.22        0.01     0.01   0.793
  sub_90556                 16.67       0.00       0.28       1.08       3.68       9.77      13.45        0.02     0.01   0.807
  sub_90557                 16.67       0.00       0.28       0.55       7.14       5.03      12.17        0.01     0.01   0.730
  sub_90558                 16.67       0.00       0.28       0.56       7.10       5.08      12.18        0.02     0.02   0.731
  sub_90559                 16.67       0.00       0.28       0.88       4.99       7.97      12.96        0.01     0.01   0.778
  sub_90560                 16.67       0.00       0.28       0.72       6.01       6.58      12.59        0.02     0.02   0.755
  sub_90561                 16.67       0.00       0.28       0.64       6.54       5.85      12.39        0.02     0.01   0.744
  sub_90562                 16.67       0.00       0.28       0.60       6.86       5.42      12.27        0.02     0.01   0.736
  sub_90563                 16.67       0.00       0.28       0.56       7.08       5.11      12.19        0.01     0.01   0.732
  sub_90564                 16.67       0.00       0.28       0.49       7.58       4.42      12.01        0.01     0.01   0.720
  sub_90565                 16.67       0.00       0.28       0.69       6.21       6.30      12.51        0.01     0.01   0.751
  sub_90566                 16.67       0.00       0.28       0.71       6.09       6.47      12.56        0.01     0.01   0.753
  sub_90567                 16.67       0.00       0.28       0.85       5.19       7.70      12.89        0.01     0.01   0.773
  sub_90568                 16.67       0.00       0.28       0.00      10.81       0.00      10.81        0.00     0.00   0.649
  sub_90569                 16.67       0.00       0.28       0.78       5.64       7.09      12.73        0.01     0.01   0.764
  sub_90570                 16.67       0.00       0.28       0.93       4.63       8.46      13.10        0.01     0.01   0.786
  sub_90571                 16.67       0.00       0.28       0.50       7.50       4.54      12.04        0.01     0.01   0.722
  sub_90572                 16.67       0.00       0.28       0.50       7.52       4.51      12.03        0.01     0.01   0.722
  sub_90573                 16.67       0.00       0.28       0.33       8.60       3.02      11.63        0.01     0.01   0.698
  sub_90574                 16.67       0.00       0.28       0.38       8.31       3.43      11.74        0.01     0.01   0.704
  sub_90575                 16.67       0.00       0.28       0.62       6.71       5.62      12.33        0.01     0.01   0.740
  sub_90576                 16.67       0.00       0.28       0.67       6.36       6.10      12.46        0.01     0.01   0.748
  sub_90577                 16.67       0.00       0.28       0.65       6.49       5.92      12.41        0.01     0.01   0.745
  sub_90578                 16.67       0.00       0.28       0.57       7.04       5.16      12.21        0.02     0.01   0.732
  sub_90579                 16.67       0.00       0.28       0.48       7.66       4.32      11.98        0.01     0.01   0.719
  sub_90580                 16.67       0.00       0.28       0.99       4.26       8.98      13.23        0.01     0.01   0.794
  sub_90581                 16.67       0.00       0.28       0.80       5.53       7.24      12.77        0.01     0.01   0.766
  sub_90582                 16.67       0.00       0.28       0.63       6.66       5.68      12.35        0.01     0.01   0.741
  sub_90583                 16.67       0.00       0.28       0.78       5.63       7.10      12.73        0.01     0.01   0.764
  sub_90584                 16.67       0.00       0.28       0.44       7.91       3.98      11.89        0.01     0.01   0.713
  sub_90585                 16.67       0.00       0.28       0.44       7.92       3.97      11.88        0.01     0.01   0.713
  sub_90586                 16.67       0.00       0.28       0.48       7.63       4.36      11.99        0.01     0.01   0.719
  sub_90587                 16.67       0.00       0.28       0.53       7.30       4.81      12.11        0.01     0.01   0.727
  sub_90588                 16.67       0.00       0.28       0.36       8.40       3.31      11.71        0.01     0.01   0.702
  sub_90589                 16.67       0.00       0.28       0.60       6.86       5.41      12.27        0.01     0.01   0.736
  sub_90590                 16.67       0.00       0.28       0.57       7.01       5.21      12.22        0.02     0.01   0.733
  sub_90591                 16.67       0.00       0.28       0.39       8.22       3.55      11.77        0.01     0.01   0.706
  sub_90592                 16.67       0.00       0.28       0.38       8.30       3.44      11.74        0.01     0.01   0.704
  sub_90593                 16.67       0.00       0.28       0.51       7.41       4.66      12.07        0.01     0.01   0.724
  sub_90594                 16.67       0.00       0.28       0.63       6.62       5.75      12.36        0.02     0.01   0.742
  sub_90595                 16.67       0.00       0.28       0.64       6.58       5.80      12.38        0.01     0.01   0.743
  sub_90596                 16.67       0.00       0.28       0.36       8.41       3.29      11.70        0.01     0.01   0.702
  sub_90597                 16.67       0.00       0.28       0.85       5.18       7.72      12.89        0.01     0.01   0.774
  sub_90598                 16.67       0.00       0.28       0.84       5.22       7.66      12.88        0.01     0.01   0.773
  sub_90599                 16.67       0.00       0.28       0.62       6.70       5.63      12.33        0.01     0.00   0.740
  sub_90600                 16.67       0.00       0.28       0.56       7.08       5.11      12.19        0.01     0.01   0.732
  sub_90601                 16.67       0.00       0.28       0.94       4.58       8.54      13.12        0.01     0.01   0.787
  sub_90602                 16.67       0.00       0.28       0.70       6.18       6.35      12.52        0.01     0.01   0.751
  sub_90603                 16.67       0.00       0.28       0.89       4.93       8.06      12.99        0.01     0.01   0.779
  sub_90604                 16.67       0.00       0.28       0.59       6.88       5.38      12.27        0.01     0.01   0.736
  sub_90605                 16.67       0.00       0.28       0.58       6.94       5.30      12.24        0.02     0.02   0.735
  sub_90606                 16.67       0.00       0.28       0.66       6.46       5.96      12.42        0.01     0.01   0.745
  sub_90607                 16.67       0.00       0.28       0.68       6.29       6.19      12.48        0.01     0.01   0.749
  sub_90608                 16.67       0.00       0.28       0.82       5.41       7.40      12.81        0.01     0.01   0.769
  sub_90609                 16.67       0.00       0.28       0.96       4.46       8.70      13.16        0.01     0.01   0.790
  sub_90610                 16.67       0.00       0.28       0.93       4.66       8.43      13.09        0.01     0.01   0.785
  sub_90611                 16.67       0.00       0.28       0.83       5.31       7.54      12.85        0.01     0.01   0.771
  sub_90612                 16.67       0.00       0.28       0.94       4.60       8.51      13.11        0.01     0.01   0.787
  sub_90613                 16.67       0.00       0.28       1.00       4.19       9.07      13.26        0.02     0.01   0.796
  sub_90615                 16.67       0.00       0.28       0.85       5.17       7.72      12.90        0.02     0.02   0.774
  sub_90616                 16.67       0.00       0.28       0.44       7.93       3.95      11.88        0.02     0.02   0.713
  sub_90617                 16.67       0.00       0.28       0.56       7.07       5.12      12.19        0.02     0.01   0.732
  sub_90618                 16.67       0.00       0.28       0.36       8.40       3.30      11.70        0.02     0.02   0.702
  sub_90619                 16.67       0.00       0.28       0.06      10.43       0.53      10.96        0.01     0.01   0.657
  sub_90620                 16.67       0.00       0.28       0.38       8.28       3.47      11.75        0.01     0.01   0.705
  sub_90621                 16.67       0.00       0.28       0.81       5.46       7.33      12.79        0.03     0.02   0.767
  sub_90623                 16.67       0.00       0.28       0.69       6.23       6.28      12.51        0.02     0.02   0.750
  sub_90624                 16.67       0.00       0.28       0.67       6.39       6.06      12.45        0.01     0.00   0.747
  sub_90625                 16.67       0.00       0.28       0.57       7.04       5.16      12.21        0.01     0.01   0.732
  sub_90626                 16.67       0.00       0.28       0.51       7.45       4.60      12.05        0.01     0.01   0.723
  sub_90627                 16.67       0.00       0.28       0.90       4.85       8.16      13.01        0.02     0.01   0.781
  sub_90628                 16.67       0.00       0.28       0.74       5.93       6.68      12.62        0.03     0.02   0.757
  sub_90629                 16.67       0.00       0.28       0.85       5.15       7.76      12.91        0.02     0.01   0.774
  sub_90630                 16.67       0.00       0.28       0.36       8.42       3.27      11.70        0.01     0.01   0.702
  sub_90631                 16.67       0.00       0.28       0.56       7.08       5.12      12.19        0.01     0.01   0.732
  sub_90632                 16.67       0.00       0.28       0.58       6.94       5.30      12.24        0.01     0.01   0.735
  sub_90633                 16.67       0.00       0.28       0.36       8.44       3.25      11.69        0.01     0.01   0.701
  sub_90634                 16.67       0.00       0.28       0.54       7.21       4.94      12.14        0.01     0.01   0.729
  sub_90635                 16.67       0.00       0.28       0.80       5.54       7.23      12.76        0.01     0.01   0.766
  sub_90636                 16.67       0.00       0.28       0.60       6.82       5.47      12.29        0.01     0.01   0.737
  sub_90637                 16.67       0.00       0.28       0.56       7.11       5.07      12.18        0.01     0.01   0.731
  sub_90638                 16.67       0.00       0.28       0.33       8.65       2.96      11.61        0.02     0.02   0.697
  sub_90639                 16.67       0.00       0.28       0.85       5.16       7.74      12.90        0.01     0.01   0.774
  sub_90640                 16.67       0.00       0.28       0.43       7.98       3.88      11.86        0.01     0.01   0.712
  sub_90641                 16.67       0.00       0.28       0.53       7.32       4.78      12.10        0.02     0.01   0.726
  sub_90642                 16.67       0.00       0.28       0.66       6.41       6.03      12.44        0.01     0.01   0.746
  sub_90643                 16.67       0.00       0.28       0.43       7.99       3.87      11.86        0.02     0.02   0.711
  sub_90644                 16.67       0.00       0.28       0.37       8.37       3.34      11.72        0.01     0.01   0.703
  sub_90645                 16.67       0.00       0.28       0.52       7.35       4.74      12.09        0.01     0.00   0.725
  sub_90646                 16.67       0.00       0.28       0.98       4.33       8.88      13.21        0.01     0.01   0.793
  sub_90647                 16.67       0.00       0.28       1.35       1.89      12.22      14.11        0.01     0.01   0.847
  sub_90648                 16.67       0.00       0.28       0.35       8.46       3.22      11.68        0.01     0.01   0.701
  sub_90649                 16.67       0.00       0.28       0.52       7.35       4.74      12.09        0.01     0.01   0.726
  sub_90650                 16.67       0.00       0.28       0.51       7.40       4.67      12.07        0.02     0.02   0.724
  sub_90651                 16.67       0.00       0.28       0.42       8.01       3.84      11.85        0.01     0.01   0.711
  sub_90652                 16.67       0.00       0.28       0.54       7.26       4.87      12.13        0.01     0.01   0.728
  sub_90653                 16.67       0.00       0.28       0.65       6.49       5.92      12.41        0.01     0.01   0.745
  sub_90654                 16.67       0.00       0.28       0.75       5.86       6.79      12.64        0.00     0.00   0.759
  sub_90655                 16.67       0.00       0.28       0.48       7.60       4.40      12.00        0.01     0.01   0.720
  sub_90656                 16.67       0.00       0.28       0.86       5.11       7.81      12.92        0.01     0.01   0.775
  sub_90657                 16.67       0.00       0.28       0.90       4.82       8.21      13.03        0.02     0.01   0.782
  sub_90658                 16.67       0.00       0.28       0.52       7.39       4.69      12.08        0.01     0.01   0.725
  sub_90659                 16.67       0.00       0.28       1.18       2.98      10.72      13.70        0.01     0.01   0.822
  sub_90662                 16.67       0.00       0.28       0.60       6.81       5.48      12.29        0.00     0.00   0.738
  sub_90663                 16.67       0.00       0.28       0.82       5.34       7.49      12.83        0.03     0.03   0.770
  sub_90664                 16.67       0.00       0.28       1.63       0.00      14.81      14.81        0.00     0.00   0.888
  sub_90665                 16.67       0.00       0.28       0.76       5.76       6.92      12.68        0.01     0.01   0.761
  sub_90669                 16.67       0.00       0.28       0.62       6.72       5.60      12.32        0.00     0.00   0.739
  sub_90670                 16.67       0.00       0.28       0.45       7.82       4.10      11.92        0.01     0.01   0.715
  sub_90671                 16.67       0.00       0.28       0.50       7.52       4.51      12.03        0.00     0.00   0.722
  sub_90672                 16.67       0.00       0.28       0.66       6.44       5.99      12.43        0.01     0.01   0.746
  sub_90673                 16.67       0.00       0.28       0.84       5.24       7.63      12.87        0.01     0.01   0.772
  sub_90674                 16.67       0.00       0.28       0.24       9.20       2.21      11.41        0.02     0.01   0.685
  sub_90675                 16.67       0.00       0.28       0.37       8.35       3.37      11.72        0.02     0.01   0.703
  sub_90676                 16.67       0.00       0.28       0.55       7.18       4.98      12.16        0.01     0.01   0.729
  sub_90677                 16.67       0.00       0.28       0.80       5.50       7.27      12.77        0.01     0.01   0.766
  sub_90678                 16.67       0.00       0.28       0.72       6.06       6.51      12.57        0.01     0.01   0.754
  sub_90679                 16.67       0.00       0.28       0.79       5.58       7.16      12.75        0.02     0.02   0.765
  sub_90680                 16.67       0.00       0.28       0.45       7.81       4.11      11.92        0.02     0.01   0.715
  sub_90681                 16.67       0.00       0.28       0.80       5.50       7.28      12.78        0.01     0.01   0.767
  sub_90682                 16.67       0.00       0.28       0.72       6.03       6.55      12.58        0.01     0.01   0.755
  sub_90683                 16.67       0.00       0.28       1.19       2.92      10.81      13.73        0.01     0.01   0.824
  sub_90684                 16.67       0.00       0.28       0.27       9.05       2.41      11.46        0.00     0.00   0.688
  sub_90685                 16.67       0.00       0.28       0.19       9.53       1.76      11.29        0.00     0.00   0.677
  sub_90686                 16.67       0.00       0.28       0.72       6.06       6.51      12.57        0.01     0.00   0.754
  sub_90688                 16.67       0.00       0.28       0.54       7.21       4.94      12.14        0.01     0.01   0.729
  sub_90689                 16.67       0.00       0.28       0.87       5.05       7.90      12.94        0.01     0.00   0.777
  sub_90690                 16.67       0.00       0.28       0.68       6.29       6.19      12.48        0.01     0.01   0.749
  sub_90691                 16.67       0.00       0.28       0.59       6.93       5.32      12.25        0.01     0.01   0.735
  sub_90692                 16.67       0.00       0.28       0.51       7.45       4.61      12.06        0.01     0.00   0.723
  sub_90693                 16.67       0.00       0.28       0.96       4.45       8.71      13.16        0.00     0.00   0.790
  sub_90694                 16.67       0.00       0.28       1.31       2.09      11.94      14.03        0.00     0.00   0.842
  sub_90695                 16.67       0.00       0.28       0.73       5.95       6.66      12.61        0.01     0.00   0.757
  sub_90696                 16.67       0.00       0.28       0.81       5.41       7.40      12.81        0.00     0.00   0.769
  sub_90697                 16.67       0.00       0.28       0.84       5.25       7.61      12.87        0.00     0.00   0.772
  sub_90698                 16.67       0.00       0.28       0.95       4.53       8.60      13.13        0.00     0.00   0.788
  sub_90699                 16.67       0.00       0.28       1.12       3.36      10.21      13.57        0.00     0.00   0.814
  sub_90700                 16.67       0.00       0.28       0.31       8.75       2.82      11.57        0.00     0.00   0.694
  sub_90701                 16.67       0.00       0.28       0.29       8.91       2.61      11.52        0.00     0.00   0.691
  sub_90702                 16.67       0.00       0.28       0.33       8.65       2.96      11.61        0.00     0.00   0.697
  sub_90703                 16.67       0.00       0.28       0.84       5.26       7.60      12.86        0.01     0.01   0.772
  sub_90704                 16.67       0.00       0.28       0.81       5.47       7.32      12.79        0.01     0.01   0.767
  sub_90705                 16.67       0.00       0.28       0.87       5.04       7.91      12.95        0.02     0.01   0.777
  sub_90706                 16.67       0.00       0.28       0.60       6.86       5.42      12.27        0.01     0.00   0.736
  sub_90707                 16.67       0.00       0.28       0.40       8.18       3.61      11.79        0.00     0.00   0.707
  sub_90708                 16.67       0.00       0.28       0.97       4.39       8.80      13.19        0.02     0.01   0.791
  sub_90709                 16.67       0.00       0.28       0.72       6.06       6.51      12.57        0.01     0.01   0.754
  sub_90710                 16.67       0.00       0.28       0.94       4.60       8.50      13.11        0.02     0.02   0.786
  sub_90724                 16.67       0.00       0.28       0.98       4.33       8.88      13.21        0.01     0.00   0.793
  sub_90725                 16.67       0.00       0.28       1.63       0.00      14.81      14.81        0.00     0.00   0.888
  sub_90726                 16.67       0.00       0.28       1.63       0.00      14.81      14.81        0.00     0.00   0.888
  sub_90727                 16.67       0.00       0.28       1.63       0.00      14.81      14.81        0.00     0.00   0.888
  sub_90728                 16.67       0.00       0.28       1.63       0.00      14.81      14.81        0.01     0.01   0.888
  sub_90729                 16.67       0.00       0.28       1.63       0.00      14.81      14.81        0.00     0.00   0.888
  sub_90730                 16.67       0.00       0.28       1.63       0.00      14.81      14.81        0.01     0.01   0.888
  sub_90731                 16.67       0.00       0.28       1.63       0.00      14.81      14.81        0.01     0.01   0.888
  sub_90732                 16.67       0.00       0.28       1.63       0.00      14.81      14.81        0.00     0.00   0.888
  sub_90733                 16.67       0.00       0.28       0.48       7.63       4.35      11.99        0.01     0.01   0.719
  
  
  ******************
  Node Depth Summary
  ******************
  
  ---------------------------------------------------------------------------------
                                 Average  Maximum  Maximum  Time of Max    Reported
                                   Depth    Depth      HGL   Occurrence   Max Depth
  Node                 Type       Meters   Meters   Meters  days hr:min      Meters
  ---------------------------------------------------------------------------------
  j_9006F              JUNCTION     0.02     0.45     0.09     0  13:25        0.44
  j_90334              JUNCTION     0.01     0.23     0.02     0  13:20        0.22
  j_90335              JUNCTION     0.01     0.40    -0.01     0  13:20        0.40
  j_90336              JUNCTION     0.01     0.25     0.08     0  13:20        0.25
  j_90363              JUNCTION     0.03     0.37     0.02     0  13:20        0.36
  j_90364              JUNCTION     0.03     0.36     0.01     0  13:20        0.36
  j_90365              JUNCTION     0.03     0.36     0.01     0  13:20        0.36
  j_90366              JUNCTION     0.01     0.32     0.01     0  13:19        0.31
  j_90367              JUNCTION     0.02     0.50     0.01     0  13:20        0.49
  j_90368              JUNCTION     0.01     0.30     0.01     0  13:19        0.29
  j_90369              JUNCTION     0.01     0.29    -0.01     0  13:20        0.29
  j_90370              JUNCTION     0.03     0.50    -0.01     0  13:20        0.49
  j_90371              JUNCTION     0.03     0.53    -0.03     0  13:20        0.53
  j_90372              JUNCTION     0.01     0.23    -0.02     0  13:20        0.21
  j_90373              JUNCTION     0.02     0.44    -0.03     0  13:20        0.43
  j_90374              JUNCTION     0.01     0.26    -0.02     0  13:21        0.24
  j_90375              JUNCTION     0.01     0.32    -0.02     0  13:21        0.30
  j_90376              JUNCTION     0.00     0.11    -0.04     0  13:22        0.10
  j_90377              JUNCTION     0.00     0.13    -0.04     0  13:22        0.12
  j_90378              JUNCTION     0.01     0.23    -0.17     0  13:20        0.22
  j_90379              JUNCTION     0.01     0.12    -0.13     0  13:15        0.12
  j_90380              JUNCTION     0.01     0.19    -0.14     0  13:20        0.19
  j_90381              JUNCTION     0.02     0.31    -0.14     0  13:20        0.30
  j_90382              JUNCTION     0.04     0.78    -0.14     0  13:20        0.77
  j_90383              JUNCTION     0.04     0.70    -0.12     0  13:20        0.70
  j_90384              JUNCTION     0.03     0.34    -0.12     0  13:20        0.34
  j_90385              JUNCTION     0.01     0.25    -0.12     0  13:21        0.25
  j_90386              JUNCTION     0.01     0.12    -0.11     0  13:15        0.12
  j_90387              JUNCTION     0.01     0.17    -0.03     0  13:21        0.16
  j_90388              JUNCTION     0.03     0.35    -0.04     0  13:20        0.35
  j_90389              JUNCTION     0.03     0.56    -0.05     0  13:20        0.55
  j_90390              JUNCTION     0.03     0.53    -0.04     0  13:20        0.53
  j_90391              JUNCTION     0.02     0.27     0.03     0  13:20        0.27
  j_90392              JUNCTION     0.02     0.30     0.05     0  13:20        0.30
  j_90393              JUNCTION     0.01     0.26     0.07     0  13:20        0.26
  j_90394              JUNCTION     0.01     0.19     0.09     0  13:20        0.19
  j_90395              JUNCTION     0.01     0.17     0.09     0  13:20        0.17
  j_90396              JUNCTION     0.00     0.12     0.10     0  13:20        0.12
  j_90397              JUNCTION     0.04     0.67    -0.10     0  13:20        0.66
  j_90398              JUNCTION     0.02     0.52    -0.10     0  13:21        0.52
  j_90399              JUNCTION     0.01     0.21    -0.10     0  13:21        0.21
  j_90400              JUNCTION     0.00     0.15    -0.11     0  13:24        0.15
  j_90401              JUNCTION     0.01     0.14    -0.17     0  13:24        0.14
  j_90402              JUNCTION     0.01     0.24    -0.12     0  13:24        0.24
  j_90403              JUNCTION     0.00     0.14    -0.11     0  13:23        0.14
  j_90404              JUNCTION     0.01     0.21    -0.09     0  13:22        0.20
  j_90405              JUNCTION     0.02     0.47    -0.09     0  13:21        0.46
  j_90406              JUNCTION     0.02     0.41    -0.09     0  13:22        0.40
  j_90407              JUNCTION     0.01     0.32    -0.09     0  13:22        0.31
  j_90408              JUNCTION     0.01     0.24    -0.08     0  13:22        0.23
  j_90427              JUNCTION     0.02     0.54     0.11     0  13:20        0.53
  j_90428              JUNCTION     0.02     0.47     0.10     0  13:21        0.46
  j_90430              JUNCTION     0.01     0.20    -1.37     0  13:21        0.20
  j_90433              JUNCTION     0.01     0.23    -0.14     0  13:23        0.23
  j_90434              JUNCTION     0.03     0.29    -0.14     0  13:23        0.29
  j_90435              JUNCTION     0.01     0.18    -0.19     0  13:24        0.18
  j_90436              JUNCTION     0.01     0.26    -0.20     0  13:15        0.26
  j_90437              JUNCTION     0.05     0.78    -0.58     0  13:21        0.77
  j_90438              JUNCTION     0.06     0.89    -0.46     0  13:21        0.89
  j_90439              JUNCTION     0.01     0.18    -0.03     0  13:22        0.17
  j_90440              JUNCTION     0.01     0.24     0.08     0  13:20        0.23
  j_90441              JUNCTION     0.00     0.10    -0.03     0  13:21        0.09
  j_90442              JUNCTION     0.04     0.61    -0.03     0  13:20        0.60
  j_90443              JUNCTION     0.06     0.92    -0.38     0  13:21        0.92
  j_90444              JUNCTION     0.04     0.83    -0.28     0  13:20        0.82
  j_90445              JUNCTION     0.01     0.19    -0.24     0  13:15        0.19
  j_90446              JUNCTION     0.01     0.16    -0.20     0  13:15        0.16
  j_90447              JUNCTION     0.01     0.13    -0.12     0  13:15        0.13
  j_90448              JUNCTION     0.01     0.12    -0.15     0  13:15        0.12
  j_90449              JUNCTION     0.02     0.25    -0.23     0  13:20        0.24
  j_90450              JUNCTION     0.01     0.24    -0.23     0  13:20        0.23
  j_90451              JUNCTION     0.04     0.79    -0.23     0  13:20        0.78
  j_90452              JUNCTION     0.01     0.24    -0.18     0  13:20        0.24
  j_90453              JUNCTION     0.04     0.78    -0.18     0  13:20        0.77
  j_90454              JUNCTION     0.01     0.23    -0.24     0  13:25        0.23
  j_90455              JUNCTION     0.02     0.27    -0.27     0  13:25        0.27
  j_90456              JUNCTION     0.02     0.38    -0.28     0  13:25        0.38
  j_90457              JUNCTION     0.03     0.45    -0.31     0  13:21        0.45
  j_90459              JUNCTION     0.04     0.71    -0.34     0  13:21        0.71
  j_90460              JUNCTION     0.03     0.65    -0.31     0  13:22        0.65
  j_90461              JUNCTION     0.05     0.77    -0.31     0  13:22        0.77
  j_90462              JUNCTION     0.04     0.73    -0.25     0  13:24        0.73
  j_90463              JUNCTION     0.02     0.57    -0.16     0  13:24        0.57
  j_90464              JUNCTION     0.02     0.49    -0.14     0  13:23        0.49
  j_90465              JUNCTION     0.01     0.41    -0.13     0  13:24        0.41
  j_90466              JUNCTION     0.01     0.31    -0.13     0  13:24        0.31
  j_90467              JUNCTION     0.02     0.34    -0.08     0  13:22        0.33
  j_90468              JUNCTION     0.02     0.43    -0.09     0  13:22        0.42
  j_90469              JUNCTION     0.02     0.46    -0.10     0  13:22        0.46
  j_90470              JUNCTION     0.02     0.55    -0.12     0  13:24        0.55
  j_90471              JUNCTION     0.02     0.58    -0.12     0  13:24        0.58
  j_90477              JUNCTION     0.01     0.47     0.16     0  13:20        0.44
  j_90478              JUNCTION     0.02     0.54     0.13     0  13:20        0.54
  j_90479              JUNCTION     0.01     0.45     0.13     0  13:20        0.45
  j_90480              JUNCTION     0.01     0.40     0.15     0  13:20        0.38
  j_90481              JUNCTION     0.02     0.55     0.15     0  13:20        0.53
  j_90482              JUNCTION     0.03     0.58     0.13     0  13:20        0.58
  j_90483              JUNCTION     0.02     0.42     0.14     0  13:20        0.40
  j_90484              JUNCTION     0.01     0.34     0.14     0  13:20        0.32
  j_90485              JUNCTION     0.02     0.45     0.12     0  13:21        0.44
  j_90486              JUNCTION     0.03     0.57     0.11     0  13:21        0.56
  j_90487              JUNCTION     0.03     0.61     0.09     0  13:21        0.60
  j_90488              JUNCTION     0.04     0.64     0.04     0  13:21        0.63
  j_90489              JUNCTION     0.01     0.29     0.06     0  13:21        0.28
  j_90490              JUNCTION     0.01     0.39     0.08     0  13:21        0.38
  j_90491              JUNCTION     0.03     0.65     0.11     0  13:20        0.65
  j_90492              JUNCTION     0.04     0.70     0.08     0  13:21        0.69
  j_90493              JUNCTION     0.01     0.40     0.08     0  13:20        0.39
  j_90494              JUNCTION     0.05     0.80     0.06     0  13:21        0.80
  j_90495              JUNCTION     0.05     0.79     0.08     0  13:21        0.78
  j_90496              JUNCTION     0.02     0.40     0.08     0  13:21        0.39
  j_90497              JUNCTION     0.01     0.24     0.06     0  13:21        0.23
  j_90498              JUNCTION     0.02     0.53     0.05     0  13:21        0.52
  j_90499              JUNCTION     0.03     0.53     0.06     0  13:22        0.53
  j_90500              JUNCTION     0.02     0.45     0.07     0  13:21        0.45
  j_90501              JUNCTION     0.01     0.36     0.09     0  13:24        0.36
  j_90502              JUNCTION     0.01     0.32     0.09     0  13:24        0.32
  j_90503              JUNCTION     0.01     0.32     0.09     0  13:25        0.32
  j_90504              JUNCTION     0.03     0.38     0.10     0  13:23        0.38
  j_90505              JUNCTION     0.03     0.59     0.09     0  13:24        0.59
  j_90506              JUNCTION     0.03     0.61     0.10     0  13:24        0.61
  j_90507              JUNCTION     0.02     0.47     0.10     0  13:23        0.47
  j_90508              JUNCTION     0.03     0.55     0.10     0  13:24        0.55
  j_90509              JUNCTION     0.01     0.35     0.10     0  13:23        0.35
  j_90510              JUNCTION     0.02     0.43     0.12     0  13:24        0.42
  j_90511              JUNCTION     0.05     0.71     0.12     0  13:24        0.71
  j_90512              JUNCTION     0.04     0.67     0.13     0  13:24        0.66
  j_90513              JUNCTION     0.01     0.34     0.08     0  13:24        0.34
  j_90514              JUNCTION     0.01     0.38     0.06     0  13:22        0.38
  j_90515              JUNCTION     0.03     0.43     0.02     0  13:25        0.43
  j_90516              JUNCTION     0.04     0.35    -0.09     0  13:25        0.35
  j_90517              JUNCTION     0.03     0.73    -0.19     0  13:24        0.73
  j_90518              JUNCTION     0.04     0.73    -0.15     0  13:24        0.73
  j_90519              JUNCTION     0.03     0.70    -0.13     0  13:24        0.70
  j_90520              JUNCTION     0.01     0.26    -0.09     0  13:15        0.26
  j_90521              JUNCTION     0.01     0.16    -0.08     0  13:15        0.16
  j_90522              JUNCTION     0.02     0.19    -0.08     0  13:15        0.19
  j_90523              JUNCTION     0.01     0.16    -0.04     0  13:15        0.16
  j_90524              JUNCTION     0.03     0.60     0.15     0  13:23        0.60
  j_90525              JUNCTION     0.02     0.51     0.16     0  13:24        0.51
  j_90526              JUNCTION     0.02     0.42     0.16     0  13:23        0.41
  j_90527              JUNCTION     0.01     0.34     0.16     0  13:24        0.34
  j_90549              JUNCTION     0.01     0.20    -0.21     0  13:15        0.20
  j_90550              JUNCTION     0.07     0.84    -0.39     0  13:25        0.84
  j_90551              JUNCTION     0.00     0.07     0.12     0  13:11        0.07
  j_90553              JUNCTION     0.03     0.61     0.23     0  13:19        0.56
  j_90554              JUNCTION     0.02     0.57     0.23     0  13:19        0.52
  j_90555              JUNCTION     0.01     0.45     0.21     0  13:19        0.45
  j_90556              JUNCTION     0.03     0.60     0.23     0  13:19        0.54
  j_90557              JUNCTION     0.03     0.61     0.23     0  13:19        0.55
  j_90558              JUNCTION     0.05     0.86     0.15     0  13:19        0.83
  j_90559              JUNCTION     0.03     0.73     0.15     0  13:19        0.71
  j_90560              JUNCTION     0.03     0.71     0.15     0  13:20        0.69
  j_90561              JUNCTION     0.02     0.51     0.13     0  13:20        0.51
  j_90562              JUNCTION     0.03     0.58     0.13     0  13:19        0.57
  j_90563              JUNCTION     0.05     0.80     0.10     0  13:20        0.78
  j_90564              JUNCTION     0.05     0.90     0.09     0  13:20        0.88
  j_90565              JUNCTION     0.02     0.43     0.09     0  13:20        0.42
  j_90566              JUNCTION     0.01     0.29     0.09     0  13:20        0.27
  j_90567              JUNCTION     0.00     0.09     0.12     0  13:11        0.09
  j_90568              JUNCTION     0.06     0.88    -0.23     0  13:25        0.88
  j_90569              JUNCTION     0.03     0.41     0.09     0  13:20        0.38
  j_90570              JUNCTION     0.00     0.18     0.10     0  13:20        0.14
  j_90571              JUNCTION     0.02     0.51     0.08     0  13:20        0.49
  j_90572              JUNCTION     0.06     0.92     0.06     0  13:20        0.91
  j_90573              JUNCTION     0.01     0.41     0.07     0  13:20        0.40
  j_90574              JUNCTION     0.06     0.84     0.04     0  13:21        0.84
  j_90575              JUNCTION     0.07     0.92     0.01     0  13:25        0.92
  j_90576              JUNCTION     0.06     0.88    -0.04     0  13:25        0.88
  j_90577              JUNCTION     0.06     0.90    -0.08     0  13:25        0.90
  j_90578              JUNCTION     0.06     0.87    -0.08     0  13:24        0.87
  j_90579              JUNCTION     0.05     0.80    -0.08     0  13:24        0.80
  j_90580              JUNCTION     0.01     0.21     0.08     0  13:22        0.20
  j_90581              JUNCTION     0.01     0.31     0.07     0  13:21        0.31
  j_90582              JUNCTION     0.01     0.31     0.07     0  13:22        0.30
  j_90583              JUNCTION     0.01     0.37     0.06     0  13:22        0.36
  j_90584              JUNCTION     0.02     0.42     0.07     0  13:21        0.42
  j_90585              JUNCTION     0.06     0.87     0.04     0  13:22        0.87
  j_90586              JUNCTION     0.06     0.89     0.07     0  13:22        0.89
  j_90587              JUNCTION     0.05     0.88     0.09     0  13:22        0.88
  j_90588              JUNCTION     0.02     0.46     0.10     0  13:21        0.46
  j_90589              JUNCTION     0.01     0.38     0.10     0  13:23        0.38
  j_90590              JUNCTION     0.01     0.35     0.10     0  13:23        0.35
  j_90591              JUNCTION     0.04     0.74     0.13     0  13:24        0.74
  j_90592              JUNCTION     0.05     0.79     0.12     0  13:24        0.79
  j_90593              JUNCTION     0.06     0.90     0.11     0  13:22        0.89
  j_90594              JUNCTION     0.05     0.82     0.12     0  13:22        0.81
  j_90595              JUNCTION     0.02     0.45     0.11     0  13:22        0.45
  j_90596              JUNCTION     0.02     0.44     0.12     0  13:22        0.43
  j_90597              JUNCTION     0.02     0.40     0.12     0  13:22        0.39
  j_90598              JUNCTION     0.01     0.37     0.12     0  13:22        0.36
  j_90599              JUNCTION     0.02     0.41     0.12     0  13:22        0.40
  j_90600              JUNCTION     0.01     0.34     0.12     0  13:23        0.33
  j_90601              JUNCTION     0.01     0.29     0.12     0  13:21        0.28
  j_90602              JUNCTION     0.02     0.42     0.15     0  13:22        0.41
  j_90603              JUNCTION     0.02     0.44     0.15     0  13:22        0.43
  j_90604              JUNCTION     0.02     0.51     0.15     0  13:22        0.50
  j_90605              JUNCTION     0.03     0.60     0.14     0  13:22        0.59
  j_90606              JUNCTION     0.04     0.58     0.15     0  13:22        0.57
  j_90607              JUNCTION     0.02     0.53     0.15     0  13:22        0.52
  j_90608              JUNCTION     0.02     0.49     0.15     0  13:22        0.48
  j_90609              JUNCTION     0.01     0.32     0.15     0  13:22        0.32
  j_90610              JUNCTION     0.01     0.37     0.15     0  13:23        0.37
  j_90611              JUNCTION     0.02     0.42     0.15     0  13:24        0.42
  j_90612              JUNCTION     0.01     0.36     0.15     0  13:24        0.36
  j_90613              JUNCTION     0.01     0.26     0.16     0  13:24        0.26
  j_90615              JUNCTION     0.01     0.14    -0.15     0  13:15        0.14
  j_90616              JUNCTION     0.01     0.19    -0.13     0  13:25        0.19
  j_90617              JUNCTION     0.01     0.14    -0.09     0  13:25        0.14
  j_90618              JUNCTION     0.01     0.28    -0.09     0  13:25        0.28
  j_90619              JUNCTION     0.06     0.90    -0.10     0  13:25        0.90
  j_90620              JUNCTION     0.08     0.96    -0.09     0  13:25        0.96
  j_90621              JUNCTION     0.06     0.92    -0.06     0  13:24        0.92
  j_90623              JUNCTION     0.06     0.87    -0.03     0  13:25        0.87
  j_90624              JUNCTION     0.04     0.77    -0.02     0  13:24        0.76
  j_90625              JUNCTION     0.03     0.72     0.02     0  13:23        0.71
  j_90626              JUNCTION     0.05     0.82    -0.00     0  13:25        0.82
  j_90627              JUNCTION     0.06     0.88    -0.00     0  13:25        0.87
  j_90628              JUNCTION     0.02     0.43     0.02     0  13:25        0.43
  j_90629              JUNCTION     0.01     0.37     0.02     0  13:25        0.37
  j_90630              JUNCTION     0.01     0.15    -0.04     0  13:15        0.15
  j_90631              JUNCTION     0.02     0.45     0.03     0  13:25        0.45
  j_90632              JUNCTION     0.02     0.47     0.02     0  13:25        0.47
  j_90633              JUNCTION     0.02     0.50     0.02     0  13:24        0.50
  j_90634              JUNCTION     0.07     0.90     0.02     0  13:25        0.90
  j_90635              JUNCTION     0.04     0.73     0.03     0  13:23        0.72
  j_90636              JUNCTION     0.03     0.73     0.16     0  13:23        0.59
  j_90637              JUNCTION     0.04     0.74     0.03     0  13:25        0.74
  j_90638              JUNCTION     0.03     0.52     0.04     0  13:24        0.51
  j_90639              JUNCTION     0.02     0.44     0.04     0  13:25        0.44
  j_90640              JUNCTION     0.01     0.32     0.03     0  13:25        0.32
  j_90641              JUNCTION     0.04     0.78    -0.06     0  13:24        0.76
  j_90642              JUNCTION     0.03     0.66    -0.07     0  13:25        0.66
  j_90643              JUNCTION     0.03     0.65    -0.07     0  13:24        0.65
  j_90644              JUNCTION     0.01     0.13    -0.02     0  13:15        0.13
  j_90645              JUNCTION     0.00     0.05     0.12     0  13:15        0.05
  j_90646              JUNCTION     0.02     0.18     0.08     0  13:15        0.18
  j_90647              JUNCTION     0.00     0.08     0.11     0  13:15        0.08
  j_90648              JUNCTION     0.01     0.33     0.04     0  13:25        0.33
  j_90649              JUNCTION     0.01     0.25     0.04     0  13:25        0.25
  j_90650              JUNCTION     0.02     0.42     0.04     0  13:25        0.42
  j_90651              JUNCTION     0.02     0.70     0.26     0  13:23        0.47
  j_90652              JUNCTION     0.02     0.45     0.03     0  13:24        0.45
  j_90653              JUNCTION     0.01     0.27     0.03     0  13:25        0.27
  j_90654              JUNCTION     0.04     0.66     0.06     0  13:25        0.66
  j_90655              JUNCTION     0.05     0.71     0.05     0  13:25        0.71
  j_90656              JUNCTION     0.05     0.73     0.04     0  13:25        0.73
  j_90657              JUNCTION     0.00     0.09     0.32     0  13:15        0.09
  j_90658              JUNCTION     0.01     0.13     0.26     0  13:15        0.13
  j_90659              JUNCTION     0.01     0.14     0.16     0  13:15        0.14
  j_90662              JUNCTION     0.01     0.16    -0.16     0  13:22        0.15
  j_90663              JUNCTION     0.02     0.58     0.15     0  13:19        0.56
  j_90664              JUNCTION     0.01     0.31     0.04     0  13:25        0.31
  j_90665              JUNCTION     0.06     0.89    -0.08     0  13:25        0.88
  j_90669              JUNCTION     0.03     0.40     0.17     0  13:20        0.40
  j_90670              JUNCTION     0.04     0.43     0.18     0  13:20        0.43
  j_90671              JUNCTION     0.04     0.44     0.18     0  13:20        0.44
  j_90672              JUNCTION     0.02     0.53     0.07     0  13:25        0.53
  j_90673              JUNCTION     0.04     0.61     0.08     0  13:25        0.60
  j_90674              JUNCTION     0.04     0.67     0.07     0  13:25        0.66
  j_90675              JUNCTION     0.03     0.38     0.16     0  13:20        0.38
  j_90676              JUNCTION     0.04     0.41     0.17     0  13:20        0.41
  j_90677              JUNCTION     0.05     0.47     0.18     0  13:20        0.47
  j_90678              JUNCTION     0.01     0.29     0.19     0  13:20        0.29
  j_90679              JUNCTION     0.01     0.21     0.19     0  13:20        0.21
  j_90680              JUNCTION     0.02     0.42     0.12     0  13:25        0.42
  j_90681              JUNCTION     0.03     0.48     0.10     0  13:25        0.48
  j_90682              JUNCTION     0.00     0.13     0.10     0  13:25        0.12
  j_90683              JUNCTION     0.03     0.54     0.09     0  13:25        0.53
  j_90684              JUNCTION     0.02     0.45     0.09     0  13:25        0.44
  j_90685              JUNCTION     0.00     0.07     0.18     0  13:15        0.07
  j_90686              JUNCTION     0.02     0.49     0.09     0  13:25        0.48
  j_90688              JUNCTION     0.00     0.07     0.52     0  13:15        0.07
  j_90689              JUNCTION     0.01     0.17    -0.13     0  13:15        0.17
  j_90690              JUNCTION     0.01     0.16    -0.09     0  13:15        0.16
  j_90691              JUNCTION     0.00     0.09     0.19     0  13:15        0.09
  j_90692              JUNCTION     0.00     0.06     0.26     0  13:15        0.06
  j_90693              JUNCTION     0.00     0.05     0.08     0  13:15        0.05
  j_90694              JUNCTION     0.00     0.08     0.14     0  13:15        0.08
  j_90695              JUNCTION     0.00     0.06     0.56     0  13:15        0.06
  j_90696              JUNCTION     0.00     0.10     0.10     0  13:15        0.10
  j_90697              JUNCTION     0.01     0.13     0.06     0  13:15        0.13
  j_90698              JUNCTION     0.01     0.14     0.02     0  13:15        0.14
  j_90699              JUNCTION     0.01     0.15    -0.03     0  13:15        0.15
  j_90700              JUNCTION     0.00     0.04     0.54     0  13:15        0.04
  j_90701              JUNCTION     0.00     0.04     0.54     0  13:15        0.04
  j_90702              JUNCTION     0.00     0.04     0.54     0  13:15        0.04
  j_90703              JUNCTION     0.03     0.62     0.14     0  13:18        0.60
  j_90704              JUNCTION     0.01     0.36     0.14     0  13:20        0.33
  j_90705              JUNCTION     0.01     0.81     0.55     0  13:18        0.39
  j_90706              JUNCTION     0.03     0.67     0.13     0  13:24        0.67
  j_90707              JUNCTION     0.02     0.51     0.13     0  13:24        0.51
  j_90708              JUNCTION     0.01     0.24     0.13     0  13:25        0.24
  j_90709              JUNCTION     0.01     0.36     0.16     0  13:19        0.35
  j_90710              JUNCTION     0.01     0.21     0.16     0  13:20        0.20
  j_90724              JUNCTION     0.04     0.44     0.18     0  13:20        0.44
  j_90725              JUNCTION     0.01     0.18     0.18     0  13:20        0.18
  j_90726              JUNCTION     0.00     0.14     0.19     0  13:20        0.13
  j_90727              JUNCTION     0.00     0.08     0.18     0  13:21        0.08
  j_90728              JUNCTION     0.00     0.12     0.18     0  13:20        0.12
  j_90729              JUNCTION     0.00     0.04     0.27     0  13:15        0.04
  j_90730              JUNCTION     0.01     0.26     0.18     0  13:20        0.26
  j_90731              JUNCTION     0.00     0.08     0.18     0  13:20        0.08
  j_90732              JUNCTION     0.00     0.04     0.19     0  13:20        0.03
  j_90733              JUNCTION     0.01     0.32     0.18     0  13:20        0.32
  j_91272              JUNCTION     0.00     0.00     0.17     0  00:00        0.00
  j_91273              JUNCTION     0.00     0.00     0.47     0  00:00        0.00
  j_91274              JUNCTION     0.00     0.00     0.23     0  00:00        0.00
  j_91275              JUNCTION     0.00     0.00     0.47     0  00:00        0.00
  j_91276              JUNCTION     0.00     0.00     0.28     0  00:00        0.00
  j_91277              JUNCTION     0.00     0.00     0.51     0  00:00        0.00
  j_91278              JUNCTION     0.00     0.00     0.35     0  00:00        0.00
  j_91279              JUNCTION     0.00     0.00     0.50     0  00:00        0.00
  j_91292              JUNCTION     0.00     0.00    -0.01     0  00:00        0.00
  j_91293              JUNCTION     0.00     0.21    -0.02     0  13:21        0.19
  j_91294              JUNCTION     0.00     0.00     0.31     0  00:00        0.00
  j_90552              OUTFALL      0.00     0.00    -1.29     0  00:00        0.00
  j_90431              OUTFALL      0.01     0.20    -1.41     0  13:21        0.20
  
  
  *******************
  Node Inflow Summary
  *******************
  
  -------------------------------------------------------------------------------------------------
                                  Maximum  Maximum                  Lateral       Total        Flow
                                  Lateral    Total  Time of Max      Inflow      Inflow     Balance
                                   Inflow   Inflow   Occurrence      Volume      Volume       Error
  Node                 Type           CMS      CMS  days hr:min    10^6 ltr    10^6 ltr     Percent
  -------------------------------------------------------------------------------------------------
  j_9006F              JUNCTION     0.004    0.006     0  13:11     0.00474     0.00503       0.000
  j_90334              JUNCTION     0.011    0.011     0  13:15      0.0166      0.0166       0.000
  j_90335              JUNCTION     0.019    0.019     0  13:15      0.0224      0.0224       0.000
  j_90336              JUNCTION     0.003    0.014     0  13:20     0.00419      0.0192       0.000
  j_90363              JUNCTION     0.022    0.022     0  13:15      0.0251      0.0252       0.000
  j_90364              JUNCTION     0.005    0.040     0  13:13     0.00758      0.0509       0.032
  j_90365              JUNCTION     0.001    0.002     0  13:10     0.00133     0.00161       3.070
  j_90366              JUNCTION     0.007    0.007     0  13:15     0.00863     0.00863       0.000
  j_90367              JUNCTION     0.006    0.052     0  13:13      0.0085       0.068      -0.157
  j_90368              JUNCTION     0.000    0.003     0  13:19           0    0.000464       0.445
  j_90369              JUNCTION     0.016    0.016     0  13:15      0.0201      0.0201       0.000
  j_90370              JUNCTION     0.007    0.040     0  13:11     0.00869      0.0512      -0.196
  j_90371              JUNCTION     0.010    0.096     0  13:17      0.0112       0.153      -0.008
  j_90372              JUNCTION     0.004    0.004     0  13:15     0.00507     0.00507       0.000
  j_90373              JUNCTION     0.007    0.018     0  13:17     0.00758      0.0248      -0.069
  j_90374              JUNCTION     0.000    0.008     0  13:14           0     0.00356       0.000
  j_90375              JUNCTION     0.008    0.018     0  13:20     0.00987      0.0177       0.153
  j_90376              JUNCTION     0.001    0.005     0  13:15     0.00171     0.00632       0.000
  j_90377              JUNCTION     0.007    0.019     0  13:21     0.00827      0.0183      -0.398
  j_90378              JUNCTION     0.008    0.019     0  13:15     0.00931      0.0238       0.000
  j_90379              JUNCTION     0.011    0.011     0  13:15      0.0145      0.0145      -0.318
  j_90380              JUNCTION     0.013    0.013     0  13:15      0.0163      0.0163       0.000
  j_90381              JUNCTION     0.008    0.021     0  13:15     0.00979      0.0261       0.972
  j_90382              JUNCTION     0.009    0.205     0  13:15      0.0115       0.369      -0.045
  j_90383              JUNCTION     0.008    0.191     0  13:16     0.00975       0.331      -0.055
  j_90384              JUNCTION     0.004    0.022     0  13:14     0.00579      0.0281       0.703
  j_90385              JUNCTION     0.006    0.018     0  13:15     0.00771      0.0224       0.232
  j_90386              JUNCTION     0.011    0.011     0  13:15      0.0146      0.0146      -0.375
  j_90387              JUNCTION     0.007    0.007     0  13:15     0.00923     0.00923       0.000
  j_90388              JUNCTION     0.005    0.012     0  13:15     0.00565      0.0149       1.783
  j_90389              JUNCTION     0.006    0.142     0  13:17     0.00759       0.235       0.000
  j_90390              JUNCTION     0.003    0.103     0  13:16     0.00425       0.172      -0.031
  j_90391              JUNCTION     0.004    0.038     0  13:20     0.00592      0.0554       0.153
  j_90392              JUNCTION     0.008    0.034     0  13:20      0.0115      0.0495       0.082
  j_90393              JUNCTION     0.014    0.027     0  13:20      0.0188       0.038      -0.075
  j_90394              JUNCTION     0.004    0.011     0  13:20     0.00594       0.015       0.156
  j_90395              JUNCTION     0.006    0.007     0  13:15     0.00657     0.00906      -0.017
  j_90396              JUNCTION     0.002    0.002     0  13:11     0.00249     0.00249       0.131
  j_90397              JUNCTION     0.006    0.171     0  13:16     0.00817       0.294      -0.008
  j_90398              JUNCTION     0.007    0.037     0  13:12     0.00927      0.0515      -0.282
  j_90399              JUNCTION     0.008    0.011     0  13:13     0.00917       0.013       1.385
  j_90400              JUNCTION     0.005    0.013     0  13:20     0.00591      0.0107      -0.002
  j_90401              JUNCTION     0.008    0.016     0  13:24       0.009      0.0168      -0.027
  j_90402              JUNCTION     0.008    0.018     0  13:22     0.00904      0.0166       0.000
  j_90403              JUNCTION     0.004    0.013     0  13:21     0.00554      0.0101      -0.197
  j_90404              JUNCTION     0.007    0.010     0  13:21     0.00905      0.0123       1.249
  j_90405              JUNCTION     0.008    0.026     0  13:12     0.00979      0.0337       0.025
  j_90406              JUNCTION     0.007    0.022     0  13:12      0.0093      0.0255      -0.529
  j_90407              JUNCTION     0.006    0.008     0  13:19     0.00721      0.0088      -0.904
  j_90408              JUNCTION     0.015    0.018     0  13:20      0.0183      0.0192       0.616
  j_90427              JUNCTION     0.016    0.027     0  13:11      0.0194      0.0327       0.000
  j_90428              JUNCTION     0.009    0.023     0  13:21      0.0113       0.023       0.038
  j_90430              JUNCTION     0.005    0.858     0  13:21     0.00574        1.49       0.005
  j_90433              JUNCTION     0.002    0.002     0  13:15     0.00307      0.0031       0.000
  j_90434              JUNCTION     0.006    0.023     0  13:22     0.00645      0.0238       1.628
  j_90435              JUNCTION     0.008    0.027     0  13:23      0.0103      0.0337      -0.062
  j_90436              JUNCTION     0.005    0.056     0  13:15     0.00572      0.0721       0.000
  j_90437              JUNCTION     0.011    0.855     0  13:21      0.0131        1.48      -0.003
  j_90438              JUNCTION     0.009    0.775     0  13:21      0.0106        1.37       0.000
  j_90439              JUNCTION     0.005    0.040     0  13:20     0.00612      0.0402       0.000
  j_90440              JUNCTION     0.015    0.034     0  13:20      0.0189        0.03      -0.011
  j_90441              JUNCTION     0.007    0.007     0  13:15      0.0093      0.0093      -0.078
  j_90442              JUNCTION     0.015    0.183     0  13:20      0.0219       0.315       0.011
  j_90443              JUNCTION     0.022    0.731     0  13:20       0.029        1.31      -0.010
  j_90444              JUNCTION     0.009    0.254     0  13:20      0.0106        0.49      -0.002
  j_90445              JUNCTION     0.008    0.027     0  13:15     0.00984      0.0335       0.303
  j_90446              JUNCTION     0.008    0.019     0  13:15     0.00924      0.0237       0.085
[...]
  c_906631                1.00   0.65  0.00  0.00  0.06  0.00  0.00  0.29  0.00  0.00
  c_906641                1.00   0.65  0.00  0.00  0.08  0.00  0.00  0.27  0.00  0.00
  c_906651                1.00   0.65  0.00  0.00  0.17  0.00  0.00  0.18  0.00  0.00
  c_906701                1.00   0.65  0.00  0.00  0.35  0.00  0.00  0.00  0.00  0.00
  c_906731                1.00   0.65  0.00  0.00  0.11  0.00  0.00  0.24  0.00  0.00
  c_906741                1.00   0.65  0.00  0.00  0.35  0.00  0.00  0.00  0.00  0.00
  c_906742                1.00   0.65  0.00  0.00  0.18  0.00  0.00  0.16  0.03  0.00
  c_906751                1.00   0.78  0.09  0.00  0.13  0.00  0.00  0.00  0.24  0.00
  c_906761                1.00   0.65  0.00  0.00  0.35  0.00  0.00  0.00  0.00  0.00
  c_906771                1.00   0.65  0.00  0.00  0.35  0.00  0.00  0.00  0.00  0.00
  c_906772                1.00   0.65  0.00  0.00  0.35  0.00  0.00  0.00  0.00  0.00
  c_906781                1.00   0.65  0.21  0.00  0.14  0.00  0.00  0.00  0.29  0.00
  c_906791                1.00   0.86  0.02  0.00  0.11  0.00  0.00  0.00  0.28  0.00
  c_906801                1.00   0.65  0.00  0.00  0.11  0.00  0.00  0.24  0.01  0.00
  c_906811                1.00   0.65  0.00  0.00  0.35  0.00  0.00  0.00  0.28  0.00
  c_906821                1.00   0.65  0.22  0.00  0.13  0.00  0.00  0.00  0.32  0.00
  c_906831                1.00   0.65  0.00  0.00  0.06  0.00  0.00  0.29  0.00  0.00
  c_906832                1.00   0.65  0.00  0.00  0.35  0.00  0.00  0.00  0.29  0.00
  c_906841                1.00   0.65  0.00  0.00  0.09  0.00  0.00  0.26  0.00  0.00
  c_906851                1.00   0.65  0.00  0.00  0.01  0.00  0.00  0.34  0.00  0.00
  c_906861                1.00   0.65  0.21  0.00  0.14  0.00  0.00  0.00  0.26  0.00
  c_906862                1.00   0.86  0.02  0.00  0.12  0.00  0.00  0.00  0.28  0.00
  c_906891                1.00   0.65  0.00  0.00  0.00  0.00  0.00  0.35  0.00  0.00
  c_906892                1.00   0.65  0.00  0.00  0.00  0.00  0.00  0.35  0.00  0.00
  c_906901                1.00   0.65  0.19  0.00  0.16  0.00  0.00  0.00  0.32  0.00
  c_906911                1.00   0.65  0.00  0.00  0.00  0.00  0.00  0.35  0.00  0.00
  c_906921                1.00   0.65  0.22  0.00  0.13  0.00  0.00  0.00  0.33  0.00
  c_906931                1.00   0.87  0.13  0.00  0.00  0.00  0.00  0.00  0.00  0.00
  c_906932                1.00   0.65  0.00  0.00  0.00  0.00  0.00  0.35  0.00  0.00
  c_906941                1.00   0.65  0.33  0.00  0.02  0.00  0.00  0.00  0.31  0.00
  c_906951                1.00   0.65  0.00  0.00  0.00  0.00  0.00  0.35  0.00  0.00
  c_906961                1.00   0.65  0.00  0.00  0.35  0.00  0.00  0.00  0.33  0.00
  c_906971                1.00   0.65  0.00  0.00  0.35  0.00  0.00  0.00  0.33  0.00
  c_906981                1.00   0.65  0.00  0.00  0.35  0.00  0.00  0.00  0.32  0.00
  c_906991                1.00   0.65  0.00  0.00  0.35  0.00  0.00  0.00  0.31  0.00
  c_906992                1.00   0.84  0.02  0.00  0.15  0.00  0.00  0.00  0.32  0.00
  c_907001                1.00   0.65  0.00  0.00  0.00  0.00  0.00  0.35  0.00  0.00
  c_907011                1.00   0.65  0.00  0.00  0.00  0.00  0.00  0.35  0.00  0.00
  c_907021                1.00   0.65  0.00  0.00  0.00  0.00  0.00  0.35  0.00  0.00
  c_907031                1.00   0.65  0.20  0.00  0.15  0.00  0.00  0.00  0.25  0.00
  c_907032                1.00   0.65  0.00  0.00  0.07  0.00  0.00  0.28  0.02  0.00
  c_907033                1.00   0.65  0.00  0.00  0.13  0.00  0.00  0.22  0.02  0.00
  c_907041                1.00   0.65  0.00  0.00  0.08  0.00  0.00  0.27  0.00  0.00
  c_907042                1.00   0.65  0.24  0.00  0.11  0.00  0.00  0.00  0.26  0.00
  c_907051                1.00   0.91  0.06  0.00  0.03  0.00  0.00  0.00  0.00  0.00
  c_907061                1.00   0.65  0.00  0.00  0.35  0.00  0.00  0.00  0.00  0.00
  c_907062                1.00   0.65  0.00  0.00  0.35  0.00  0.00  0.00  0.26  0.00
  c_907071                1.00   0.65  0.00  0.00  0.06  0.00  0.00  0.29  0.00  0.00
  c_907081                1.00   0.65  0.00  0.00  0.05  0.00  0.00  0.30  0.01  0.00
  c_907091                1.00   0.65  0.17  0.00  0.17  0.00  0.00  0.00  0.31  0.00
  c_907101                1.00   0.83  0.05  0.00  0.13  0.00  0.00  0.00  0.31  0.00
  c_907241                1.00   0.65  0.00  0.00  0.35  0.00  0.00  0.00  0.00  0.00
  c_907242                1.00   0.65  0.00  0.00  0.35  0.00  0.00  0.00  0.00  0.00
  c_907251                1.00   0.65  0.00  0.00  0.13  0.00  0.00  0.22  0.31  0.00
  c_907261                1.00   0.65  0.24  0.00  0.11  0.00  0.00  0.00  0.31  0.00
  c_907271                1.00   0.89  0.01  0.00  0.10  0.00  0.00  0.00  0.32  0.00
  c_907281                1.00   0.85  0.14  0.00  0.00  0.00  0.01  0.00  0.00  0.00
  c_907291                1.00   0.85  0.02  0.00  0.13  0.00  0.00  0.00  0.33  0.00
  c_907301                1.00   0.84  0.01  0.00  0.15  0.00  0.00  0.00  0.32  0.00
  c_907311                1.00   0.84  0.02  0.00  0.14  0.00  0.00  0.00  0.32  0.00
  c_907321                1.00   0.86  0.03  0.00  0.11  0.00  0.00  0.00  0.33  0.00
  c_907331                1.00   0.65  0.19  0.00  0.16  0.00  0.00  0.00  0.29  0.00
  c_907332                1.00   0.65  0.00  0.00  0.13  0.00  0.00  0.22  0.03  0.00
  c_912721                1.00   1.00  0.00  0.00  0.00  0.00  0.00  0.00  0.00  0.00
  c_912731                1.00   1.00  0.00  0.00  0.00  0.00  0.00  0.00  0.00  0.00
  c_912741                1.00   1.00  0.00  0.00  0.00  0.00  0.00  0.00  0.00  0.00
  c_912751                1.00   1.00  0.00  0.00  0.00  0.00  0.00  0.00  0.00  0.00
  c_912761                1.00   1.00  0.00  0.00  0.00  0.00  0.00  0.00  0.00  0.00
  c_912771                1.00   1.00  0.00  0.00  0.00  0.00  0.00  0.00  0.00  0.00
  c_912781                1.00   1.00  0.00  0.00  0.00  0.00  0.00  0.00  0.00  0.00
  c_912791                1.00   1.00  0.00  0.00  0.00  0.00  0.00  0.00  0.00  0.00
  c_912931                1.00   0.68  0.32  0.00  0.00  0.00  0.00  0.00  0.00  0.00
  c_912932                1.00   0.68  0.00  0.00  0.03  0.00  0.00  0.29  0.00  0.00
  c_912941                1.00   1.00  0.00  0.00  0.00  0.00  0.00  0.00  0.00  0.00
  
  
  *************************
  Conduit Surcharge Summary
  *************************
  
  ----------------------------------------------------------------------------
                                                           Hours        Hours 
                         --------- Hours Full --------   Above Full   Capacity
  Conduit                Both Ends  Upstream  Dnstream   Normal Flow   Limited
  ----------------------------------------------------------------------------
  c_903642                    0.15      0.15      0.16      0.37         0.02
  c_903651                    0.15      0.15      0.15      0.01         0.03
  c_903671                    0.01      0.01      0.13      0.01         0.01
  c_903672                    0.03      0.03      0.03      0.17         0.01
  c_903681                    0.01      0.01      0.03      0.01         0.01
  c_903701                    0.01      0.01      0.14      0.01         0.01
  c_903702                    0.01      0.01      0.14      0.01         0.01
  c_903711                    0.11      0.11      0.21      0.01         0.01
  c_903712                    0.13      0.13      0.17      0.01         0.01
  c_903731                    0.01      0.01      0.21      0.01         0.01
  c_903732                    0.01      0.01      0.18      0.01         0.01
  c_903752                    0.01      0.01      0.06      0.01         0.01
  c_903831                    0.01      0.01      0.03      0.01         0.01
  c_903972                    0.01      0.01      0.18      0.01         0.01
  c_903981                    0.19      0.19      0.34      0.01         0.01
  c_904051                    0.10      0.10      0.19      0.01         0.01
  c_904062                    0.01      0.01      0.10      0.01         0.01
  c_904281                    0.09      0.09      0.13      0.01         0.01
  c_904381                    0.01      0.01      0.01      0.34         0.01
  c_904421                    0.01      0.01      0.04      0.56         0.01
  c_904441                    0.20      0.20      0.32      0.01         0.01
  c_904512                    0.14      0.14      0.20      0.01         0.01
  c_904531                    0.12      0.12      0.13      0.01         0.01
  c_904532                    0.13      0.13      0.14      0.01         0.01
  c_904571                    0.01      0.01      0.01      0.23         0.01
  c_904592                    0.01      0.01      0.09      0.34         0.01
  c_904611                    0.16      0.16      0.19      0.01         0.01
  c_904612                    0.01      0.01      0.11      0.02         0.01
  c_904621                    0.01      0.01      0.01      0.19         0.01
  c_904641                    0.09      0.09      0.20      0.01         0.01
  c_904651                    0.01      0.01      0.09      0.01         0.01
  c_904701                    0.08      0.08      0.19      0.01         0.01
  c_904791                    0.01      0.01      0.15      0.01         0.01
  c_904801                    0.01      0.01      0.01      0.01         0.01
  c_904811                    0.01      0.01      0.02      0.01         0.01
  c_904821                    0.15      0.15      0.19      0.01         0.01
  c_904822                    0.14      0.14      0.19      0.01         0.01
  c_904831                    0.01      0.01      0.12      0.01         0.01
  c_904851                    0.01      0.01      0.01      0.01         0.01
  c_904861                    0.17      0.17      0.23      0.01         0.01
  c_904862                    0.01      0.01      0.14      0.01         0.01
  c_904871                    0.17      0.17      0.30      0.01         0.01
  c_904881                    0.30      0.30      0.36      0.01         0.01
  c_904882                    0.04      0.10      0.04      0.14         0.04
  c_904921                    0.32      0.32      0.36      0.08         0.08
  c_904922                    0.01      0.01      0.24      0.01         0.01
  c_904951                    0.47      0.47      0.50      0.01         0.01
  c_904952                    0.63      0.63      0.65      0.01         0.01
  c_904961                    0.01      0.01      0.23      0.01         0.01
  c_904982                    0.01      0.01      0.10      0.01         0.01
  c_904991                    0.18      0.19      0.18      0.24         0.14
  c_905001                    0.01      0.01      0.19      0.01         0.01
  c_905051                    0.28      0.28      0.41      0.01         0.01
  c_905061                    0.28      0.28      0.30      0.02         0.01
  c_905071                    0.10      0.10      0.30      0.01         0.01
  c_905072                    0.01      0.01      0.10      0.01         0.01
  c_905081                    0.22      0.22      0.27      0.01         0.01
  c_905091                    0.01      0.01      0.14      0.01         0.01
  c_905111                    0.01      0.01      0.21      0.01         0.01
  c_905121                    0.37      0.37      0.41      0.01         0.01
  c_905131                    0.01      0.01      0.27      0.01         0.01
  c_905161                    0.01      0.01      0.01      0.27         0.01
  c_905171                    0.20      0.20      0.26      0.01         0.01
  c_905172                    0.01      0.01      0.01      0.07         0.01
  c_905182                    0.15      0.15      0.21      0.28         0.01
  c_905191                    0.01      0.01      0.13      0.01         0.01
  c_905192                    0.18      0.18      0.21      0.01         0.01
  c_905241                    0.29      0.29      0.38      0.01         0.01
  c_905251                    0.14      0.14      0.29      0.01         0.01
  c_905261                    0.01      0.01      0.14      0.01         0.01
  c_905521                    0.01      0.01      0.01      0.38         0.01
  c_905541                    0.02      0.02      0.13      0.01         0.01
  c_905551                    0.01      0.01      0.01      0.01         0.01
  c_905561                    0.12      0.12      0.13      0.01         0.01
  c_905571                    0.12      0.12      0.12      0.43         0.03
  c_905572                    0.08      0.08      0.12      0.01         0.01
  c_905581                    0.10      0.10      0.29      0.01         0.01
  c_905591                    0.16      0.16      0.32      0.01         0.01
  c_905601                    0.33      0.33      0.35      0.01         0.01
  c_905602                    0.01      0.01      0.33      0.01         0.01
  c_905611                    0.12      0.12      0.15      0.01         0.01
  c_905621                    0.12      0.12      0.19      0.01         0.01
  c_905622                    0.01      0.01      0.19      0.01         0.01
  c_905631                    0.17      0.17      0.23      0.01         0.01
  c_905632                    0.30      0.30      0.31      1.28         0.01
  c_905641                    0.10      0.10      0.18      0.01         0.01
  c_905651                    0.01      0.01      0.20      0.01         0.01
  c_905711                    0.01      0.01      0.12      0.01         0.01
  c_905721                    0.24      0.24      0.25      0.03         0.03
  c_905722                    0.13      0.13      0.30      0.01         0.01
  c_905731                    0.01      0.01      0.01      0.04         0.01
  c_905732                    0.01      0.01      0.23      0.01         0.01
  c_905741                    0.65      0.65      0.70      0.01         0.01
  c_905751                    0.67      0.67      0.83      0.01         0.01
  c_905752                    0.30      0.30      0.35      0.01         0.02
  c_905761                    0.01      0.01      0.01      0.12         0.01
  c_905781                    0.27      0.27      0.31      0.01         0.01
  c_905791                    0.16      0.16      0.27      0.01         0.01
  c_905821                    0.01      0.01      0.01      0.24         0.01
  c_905851                    0.25      0.25      0.33      0.01         0.01
  c_905852                    0.01      0.01      0.24      0.01         0.01
  c_905861                    0.24      0.27      0.24      1.42         0.24
  c_905862                    0.01      0.01      0.19      0.01         0.01
  c_905871                    0.25      0.25      0.27      0.01         0.01
  c_905881                    0.06      0.06      0.32      0.01         0.01
  c_905891                    0.01      0.01      0.06      0.01         0.01
  c_905901                    0.01      0.01      0.22      0.01         0.01
  c_905921                    0.47      0.47      0.54      0.01         0.01
  c_905931                    0.25      0.26      0.25      1.25         0.25
  c_905941                    0.14      0.14      0.26      0.01         0.01
  c_905942                    0.50      0.50      0.54      0.44         0.01
  c_905951                    0.01      0.01      0.23      0.01         0.01
  c_905961                    0.01      0.01      0.23      0.01         0.01
  c_905971                    0.01      0.01      0.01      0.01         0.01
  c_906041                    0.01      0.01      0.13      0.01         0.01
  c_906051                    0.11      0.11      0.24      0.01         0.01
  c_906052                    0.01      0.01      0.16      0.01         0.01
  c_906061                    0.17      0.17      0.24      0.01         0.01
  c_906071                    0.15      0.15      0.21      0.01         0.01
  c_906081                    0.11      0.11      0.15      0.01         0.01
  c_906082                    0.01      0.01      0.11      0.01         0.01
  c_906111                    0.01      0.01      0.16      0.01         0.01
  c_906201                    0.01      0.01      0.07      1.07         0.01
  c_906211                    0.09      0.09      0.18      0.01         0.01
  c_906231                    0.01      0.01      0.09      0.01         0.01
  c_906241                    0.52      0.52      0.65      0.01         0.01
  c_906261                    0.43      0.43      0.60      0.01         0.01
  c_906271                    0.60      0.60      0.63      0.01         0.01
  c_906272                    0.01      0.01      0.01      0.12         0.01
  c_906281                    0.01      0.01      0.17      0.01         0.01
  c_906322                    0.01      0.01      0.01      0.46         0.01
  c_906331                    0.06      0.06      0.12      0.01         0.01
  c_906341                    0.12      0.12      0.29      0.01         0.01
  c_906351                    0.36      0.36      0.43      0.01         0.01
  c_906352                    0.43      0.43      0.45      0.01         0.01
  c_906361                    0.21      0.21      0.40      0.01         0.01
  c_906381                    0.13      0.13      0.22      0.01         0.01
  c_906391                    0.01      0.01      0.15      0.01         0.01
  c_906411                    0.05      0.05      0.16      0.01         0.01
  c_906421                    0.01      0.01      0.05      0.01         0.01
  c_906511                    0.04      0.04      0.25      0.01         0.01
  c_906521                    0.01      0.01      0.04      0.01         0.01
  c_906531                    0.01      0.01      0.01      0.01         0.01
  c_906561                    0.01      0.01      0.01      0.32         0.01
  c_906563                    0.01      0.01      0.18      0.01         0.01
  c_906631                    0.16      0.17      0.16      0.29         0.11
  c_906651                    0.78      0.78      0.78      0.01         0.10
  c_906731                    0.51      0.51      0.51      0.29         0.20
  c_906741                    0.01      0.01      0.01      0.60         0.01
  c_906781                    0.01      0.01      0.45      0.01         0.01
  c_906821                    0.01      0.01      0.42      0.01         0.01
  c_906841                    0.40      0.40      0.41      0.01         0.01
  c_907031                    0.20      0.20      0.24      0.01         0.01
  c_907032                    0.15      0.15      0.32      0.01         0.01
  c_907033                    0.24      0.24      0.29      0.01         0.01
  c_907051                    0.01      0.01      0.13      0.01         0.01
  c_907061                    0.38      0.38      0.45      0.01         0.01
  c_907062                    0.38      0.38      0.47      0.01         0.01
  c_907071                    0.25      0.25      0.26      0.01         0.01
  c_907081                    0.01      0.01      0.20      0.01         0.01
  c_907091                    0.13      0.13      0.37      0.01         0.01
  c_907101                    0.01      0.01      0.13      0.01         0.01
  c_907242                    0.01      0.01      0.01      0.06         0.01
  c_907251                    0.01      0.01      0.21      0.01         0.01
  c_907331                    0.01      0.01      0.11      0.01         0.01
  c_907332                    0.11      0.11      0.21      0.01         0.01
  

  Analysis begun on:  Sun Jun 12 01:36:45 2022
  Analysis ended on:  Sun Jun 12 01:37:06 2022
  Total elapsed time: 00:00:21