
  EPA STORM WATER MANAGEMENT MODEL - VERSION 5.1 (Build 5.1.015)
  --------------------------------------------------------------

  WARNING 04: minimum elevation drop used for Conduit c_903642
  WARNING 04: minimum elevation drop used for Conduit c_903651
  WARNING 04: minimum elevation drop used for Conduit c_903672
  WARNING 04: minimum elevation drop used for Conduit c_905571
  WARNING 04: minimum elevation drop used for Conduit c_905632
  WARNING 04: minimum elevation drop used for Conduit c_905821
  WARNING 04: minimum elevation drop used for Conduit c_905861
  WARNING 04: minimum elevation drop used for Conduit c_905931
  WARNING 04: minimum elevation drop used for Conduit c_906201
  WARNING 04: minimum elevation drop used for Conduit c_906322
  WARNING 04: minimum elevation drop used for Conduit c_906631
  WARNING 04: minimum elevation drop used for Conduit c_906641
  WARNING 04: minimum elevation drop used for Conduit c_906651
  WARNING 04: minimum elevation drop used for Conduit c_906731
  WARNING 04: minimum elevation drop used for Conduit c_906741
  WARNING 04: minimum elevation drop used for Conduit c_907242
  
  *********************
  Rainfall File Summary
  *********************
  Station    First        Last         Recording   Periods    Periods    Periods
  ID         Date         Date         Frequency  w/Precip    Missing    Malfunc.
  -------------------------------------------------------------------------------
  R1         01/01/2019   01/01/2019       5 min        51          0          0
  R1         01/01/2019   01/01/2019       5 min        51          0          0
  R1         01/01/2019   01/01/2019       5 min        51          0          0

  
  *********************************************************
  NOTE: The summary statistics displayed in this report are
  based on results found at every computational time step,  
  not just on results from each reporting time step.
  *********************************************************
  
  ****************
  Analysis Options
  ****************
  Flow Units ............... CMS
  Process Models:
    Rainfall/Runoff ........ YES
    RDII ................... NO
    Snowmelt ............... NO
    Groundwater ............ NO
    Flow Routing ........... YES
    Ponding Allowed ........ NO
    Water Quality .......... NO
  Infiltration Method ...... HORTON
  Flow Routing Method ...... DYNWAVE
  Surcharge Method ......... EXTRAN
  Starting Date ............ 01/01/2019 00:00:00
  Ending Date .............. 01/01/2019 04:15:00
  Antecedent Dry Days ...... 0.0
  Report Time Step ......... 00:05:00
  Wet Time Step ............ 00:01:00
  Dry Time Step ............ 00:10:00
  Routing Time Step ........ 1.00 sec
  Variable Time Step ....... YES
  Maximum Trials ........... 12
  Number of Threads ........ 2
  Head Tolerance ........... 0.000200 m
  
  
  **************************        Volume         Depth
  Runoff Quantity Continuity     hectare-m            mm
  **************************     ---------       -------
  Total Precipitation ......         0.514        18.516
  Evaporation Loss .........         0.004         0.127
  Infiltration Loss ........         0.018         0.655
  Surface Runoff ...........         0.391        14.103
  Final Storage ............         0.104         3.730
  Continuity Error (%) .....        -0.535
  
  
  **************************        Volume        Volume
  Flow Routing Continuity        hectare-m      10^6 ltr
  **************************     ---------     ---------
  Dry Weather Inflow .......         0.000         0.000
  Wet Weather Inflow .......         0.391         3.913
  Groundwater Inflow .......         0.000         0.000
  RDII Inflow ..............         0.000         0.000
  External Inflow ..........         0.000         0.000
  External Outflow .........         0.391         3.911
  Flooding Loss ............         0.000         0.000
  Evaporation Loss .........         0.000         0.000
  Exfiltration Loss ........         0.000         0.000
  Initial Stored Volume ....         0.000         0.000
  Final Stored Volume ......         0.002         0.016
  Continuity Error (%) .....        -0.380
  
  
  *************************
  Highest Continuity Errors
  *************************
  Node j_90618 (2.28%)
  Node j_90650 (2.02%)
  Node j_90638 (1.82%)
  Node j_90457 (1.72%)
  Node j_90434 (1.46%)
  
  
  ***************************
  Time-Step Critical Elements
  ***************************
  Link c_904312 (26.56%)
  
  
  ********************************
  Highest Flow Instability Indexes
  ********************************
  Link c_906651 (3)
  Link c_904611 (2)
  
  
  *************************
  Routing Time Step Summary
  *************************
  Minimum Time Step           :     0.26 sec
  Average Time Step           :     0.90 sec
  Maximum Time Step           :     1.00 sec
  Percent in Steady State     :     1.96
  Average Iterations per Step :     2.71
  Percent Not Converging      :     6.33
  Time Step Frequencies       :
      1.000 -  0.871 sec      :    75.22 %
      0.871 -  0.758 sec      :     3.12 %
      0.758 -  0.660 sec      :     3.59 %
      0.660 -  0.574 sec      :     5.27 %
      0.574 -  0.500 sec      :    12.81 %
  
  
  ***************************
  Subcatchment Runoff Summary
  ***************************
  
  ------------------------------------------------------------------------------------------------------------------------------
                            Total      Total      Total      Total     Imperv       Perv      Total       Total     Peak  Runoff
                           Precip      Runon       Evap      Infil     Runoff     Runoff     Runoff      Runoff   Runoff   Coeff
  Subcatchment                 mm         mm         mm         mm         mm         mm         mm    10^6 ltr      CMS
  ------------------------------------------------------------------------------------------------------------------------------
  sub_9006F                 18.52       0.00       0.13       0.54       8.38       5.46      13.84        0.01     0.00   0.748
  sub_90334                 18.52       0.00       0.12       1.43       1.52      14.41      15.92        0.02     0.01   0.860
  sub_90335                 18.52       0.00       0.13       0.33      10.03       3.31      13.34        0.03     0.02   0.721
  sub_90336                 18.52       0.00       0.12       1.10       4.06      11.10      15.15        0.00     0.00   0.818
  sub_90363                 18.52       0.00       0.13       0.33      10.01       3.34      13.35        0.03     0.03   0.721
  sub_90364                 18.52       0.00       0.12       1.22       3.20      12.21      15.41        0.01     0.01   0.832
  sub_90365                 18.52       0.00       0.12       1.63       0.00      16.38      16.38        0.00     0.00   0.885
  sub_90366                 18.52       0.00       0.13       0.55       8.32       5.54      13.86        0.01     0.01   0.749
  sub_90367                 18.52       0.00       0.13       0.93       5.42       9.33      14.74        0.01     0.01   0.796
  sub_90369                 18.52       0.00       0.13       0.66       7.45       6.67      14.12        0.02     0.02   0.763
  sub_90370                 18.52       0.00       0.13       0.45       9.13       4.49      13.62        0.01     0.01   0.735
  sub_90371                 18.52       0.00       0.13       0.23      10.78       2.34      13.12        0.01     0.01   0.708
  sub_90372                 18.52       0.00       0.12       1.03       4.63      10.35      14.98        0.01     0.00   0.809
  sub_90373                 18.52       0.00       0.13       0.07      12.03       0.71      12.74        0.01     0.01   0.688
  sub_90375                 18.52       0.00       0.13       0.33      10.06       3.28      13.33        0.01     0.01   0.720
  sub_90376                 18.52       0.00       0.13       0.58       8.08       5.85      13.93        0.00     0.00   0.752
  sub_90377                 18.52       0.00       0.13       0.34       9.92       3.46      13.38        0.01     0.01   0.722
  sub_90378                 18.52       0.00       0.13       0.46       9.03       4.62      13.65        0.01     0.01   0.737
  sub_90379                 18.52       0.00       0.13       0.77       6.62       7.76      14.38        0.02     0.01   0.776
  sub_90380                 18.52       0.00       0.13       0.70       7.16       7.06      14.21        0.02     0.02   0.768
  sub_90381                 18.52       0.00       0.13       0.71       7.09       7.14      14.23        0.01     0.01   0.769
  sub_90382                 18.52       0.00       0.13       0.59       8.02       5.93      13.95        0.01     0.01   0.753
  sub_90383                 18.52       0.00       0.13       0.50       8.69       5.06      13.75        0.01     0.01   0.743
  sub_90384                 18.52       0.00       0.13       0.96       5.14       9.68      14.82        0.01     0.01   0.801
  sub_90385                 18.52       0.00       0.13       0.43       9.28       4.28      13.57        0.01     0.01   0.733
  sub_90386                 18.52       0.00       0.13       0.78       6.56       7.84      14.39        0.02     0.01   0.777
  sub_90387                 18.52       0.00       0.13       0.61       7.88       6.12      13.99        0.01     0.01   0.756
  sub_90388                 18.52       0.00       0.13       0.60       7.93       6.05      13.98        0.01     0.01   0.755
  sub_90389                 18.52       0.00       0.13       0.67       7.42       6.71      14.13        0.01     0.01   0.763
  sub_90390                 18.52       0.00       0.13       0.84       6.10       8.44      14.54        0.00     0.00   0.785
  sub_90391                 18.52       0.00       0.12       1.63       0.00      16.38      16.38        0.01     0.00   0.885
  sub_90392                 18.52       0.00       0.12       1.04       4.53      10.48      15.01        0.01     0.01   0.811
  sub_90393                 18.52       0.00       0.12       1.03       4.64      10.34      14.98        0.02     0.02   0.809
  sub_90394                 18.52       0.00       0.13       0.98       5.03       9.83      14.86        0.01     0.01   0.802
  sub_90395                 18.52       0.00       0.13       0.38       9.65       3.80      13.46        0.01     0.01   0.727
  sub_90396                 18.52       0.00       0.13       0.00      12.57       0.00      12.57        0.00     0.00   0.679
  sub_90397                 18.52       0.00       0.13       0.88       5.79       8.84      14.63        0.01     0.01   0.790
  sub_90398                 18.52       0.00       0.13       0.92       5.49       9.23      14.72        0.01     0.01   0.795
  sub_90399                 18.52       0.00       0.13       0.51       8.60       5.17      13.78        0.01     0.01   0.744
  sub_90400                 18.52       0.00       0.13       0.61       7.86       6.14      14.00        0.01     0.01   0.756
  sub_90401                 18.52       0.00       0.13       0.36       9.80       3.62      13.41        0.01     0.01   0.724
  sub_90402                 18.52       0.00       0.13       0.38       9.63       3.83      13.46        0.01     0.01   0.727
  sub_90403                 18.52       0.00       0.13       0.62       7.82       6.19      14.01        0.01     0.01   0.757
  sub_90404                 18.52       0.00       0.13       0.65       7.58       6.51      14.09        0.01     0.01   0.761
  sub_90405                 18.52       0.00       0.13       0.71       7.09       7.14      14.23        0.01     0.01   0.769
  sub_90406                 18.52       0.00       0.13       0.86       5.94       8.65      14.58        0.01     0.01   0.788
  sub_90407                 18.52       0.00       0.13       0.84       6.06       8.48      14.55        0.01     0.01   0.786
  sub_90408                 18.52       0.00       0.13       0.54       8.41       5.42      13.83        0.02     0.02   0.747
  sub_90427                 18.52       0.00       0.13       0.63       7.69       6.37      14.05        0.02     0.02   0.759
  sub_90428                 18.52       0.00       0.13       0.77       6.64       7.73      14.37        0.01     0.01   0.776
  sub_90430                 18.52       0.00       0.13       0.37       9.75       3.68      13.43        0.01     0.01   0.725
  sub_90431                 18.52       0.00       0.13       0.59       8.02       5.94      13.95        0.01     0.01   0.754
  sub_90433                 18.52       0.00       0.13       0.81       6.29       8.19      14.48        0.00     0.00   0.782
  sub_90434                 18.52       0.00       0.13       0.29      10.33       2.93      13.25        0.01     0.01   0.716
  sub_90435                 18.52       0.00       0.13       0.52       8.58       5.20      13.78        0.01     0.01   0.744
  sub_90436                 18.52       0.00       0.13       0.26      10.56       2.62      13.18        0.01     0.01   0.712
  sub_90437                 18.52       0.00       0.13       0.41       9.40       4.13      13.53        0.02     0.01   0.731
  sub_90438                 18.52       0.00       0.13       0.58       8.09       5.84      13.93        0.01     0.01   0.752
  sub_90439                 18.52       0.00       0.13       0.59       8.05       5.90      13.94        0.01     0.01   0.753
  sub_90440                 18.52       0.00       0.13       0.66       7.44       6.68      14.13        0.02     0.02   0.763
  sub_90441                 18.52       0.00       0.12       1.09       4.19      10.92      15.11        0.01     0.01   0.816
  sub_90442                 18.52       0.00       0.12       1.28       2.72      12.83      15.56        0.02     0.02   0.840
  sub_90443                 18.52       0.00       0.13       0.95       5.23       9.56      14.80        0.03     0.03   0.799
  sub_90444                 18.52       0.00       0.13       0.46       9.04       4.60      13.64        0.01     0.01   0.737
  sub_90445                 18.52       0.00       0.13       0.80       6.37       8.09      14.45        0.01     0.01   0.781
  sub_90446                 18.52       0.00       0.13       0.49       8.82       4.89      13.71        0.01     0.01   0.740
  sub_90447                 18.52       0.00       0.13       0.76       6.73       7.62      14.34        0.02     0.01   0.775
  sub_90448                 18.52       0.00       0.13       0.70       7.14       7.08      14.22        0.02     0.01   0.768
  sub_90449                 18.52       0.00       0.13       0.66       7.45       6.67      14.12        0.01     0.01   0.763
  sub_90450                 18.52       0.00       0.13       0.56       8.24       5.65      13.89        0.00     0.00   0.750
  sub_90451                 18.52       0.00       0.13       0.71       7.06       7.18      14.24        0.01     0.01   0.769
  sub_90452                 18.52       0.00       0.13       0.92       5.50       9.22      14.72        0.01     0.01   0.795
  sub_90453                 18.52       0.00       0.13       0.47       8.94       4.74      13.67        0.01     0.01   0.739
  sub_90454                 18.52       0.00       0.13       0.63       7.68       6.38      14.06        0.01     0.01   0.759
  sub_90455                 18.52       0.00       0.13       0.35       9.88       3.51      13.39        0.01     0.01   0.723
  sub_90456                 18.52       0.00       0.13       0.95       5.28       9.50      14.78        0.02     0.02   0.798
  sub_90457                 18.52       0.00       0.13       0.93       5.40       9.35      14.75        0.02     0.02   0.796
  sub_90459                 18.52       0.00       0.12       1.13       3.87      11.34      15.21        0.03     0.02   0.821
  sub_90460                 18.52       0.00       0.12       1.51       0.91      15.20      16.11        0.01     0.01   0.870
  sub_90461                 18.52       0.00       0.13       0.54       8.38       5.46      13.84        0.01     0.00   0.748
  sub_90462                 18.52       0.00       0.13       0.77       6.66       7.70      14.36        0.01     0.01   0.776
  sub_90463                 18.52       0.00       0.13       0.39       9.54       3.95      13.49        0.01     0.01   0.729
  sub_90464                 18.52       0.00       0.13       0.66       7.52       6.59      14.10        0.01     0.01   0.762
  sub_90465                 18.52       0.00       0.13       0.35       9.88       3.51      13.39        0.01     0.01   0.723
  sub_90466                 18.52       0.00       0.13       0.61       7.86       6.14      14.00        0.01     0.01   0.756
  sub_90467                 18.52       0.00       0.13       0.30      10.26       3.01      13.27        0.02     0.02   0.717
  sub_90468                 18.52       0.00       0.13       0.58       8.10       5.82      13.93        0.02     0.01   0.752
  sub_90469                 18.52       0.00       0.13       0.35       9.88       3.51      13.39        0.01     0.01   0.723
  sub_90470                 18.52       0.00       0.13       0.60       7.95       6.03      13.97        0.01     0.01   0.755
  sub_90471                 18.52       0.00       0.13       0.50       8.74       4.99      13.73        0.01     0.01   0.742
  sub_90477                 18.52       0.00       0.13       0.34       9.95       3.41      13.37        0.02     0.02   0.722
  sub_90478                 18.52       0.00       0.13       0.39       9.54       3.95      13.49        0.01     0.01   0.729
  sub_90479                 18.52       0.00       0.13       0.93       5.36       9.39      14.76        0.01     0.01   0.797
  sub_90480                 18.52       0.00       0.13       0.46       9.02       4.62      13.65        0.02     0.01   0.737
  sub_90481                 18.52       0.00       0.13       0.58       8.07       5.86      13.94        0.01     0.01   0.753
  sub_90482                 18.52       0.00       0.13       0.61       7.88       6.11      13.99        0.01     0.01   0.756
  sub_90483                 18.52       0.00       0.12       1.22       3.14      12.29      15.43        0.02     0.01   0.833
  sub_90484                 18.52       0.00       0.13       0.51       8.64       5.12      13.76        0.01     0.01   0.743
  sub_90485                 18.52       0.00       0.13       0.92       5.49       9.23      14.72        0.02     0.02   0.795
  sub_90486                 18.52       0.00       0.13       0.68       7.32       6.85      14.16        0.02     0.02   0.765
  sub_90487                 18.52       0.00       0.13       0.58       8.07       5.86      13.94        0.03     0.02   0.753
  sub_90488                 18.52       0.00       0.13       0.71       7.08       7.16      14.24        0.02     0.02   0.769
  sub_90489                 18.52       0.00       0.13       0.36       9.79       3.62      13.41        0.01     0.01   0.724
  sub_90490                 18.52       0.00       0.13       0.32      10.09       3.24      13.33        0.01     0.01   0.720
  sub_90491                 18.52       0.00       0.13       0.38       9.64       3.82      13.46        0.01     0.01   0.727
  sub_90492                 18.52       0.00       0.13       0.51       8.63       5.14      13.77        0.02     0.01   0.744
  sub_90493                 18.52       0.00       0.13       0.35       9.89       3.50      13.39        0.01     0.01   0.723
  sub_90494                 18.52       0.00       0.13       0.33      10.00       3.35      13.35        0.01     0.01   0.721
  sub_90495                 18.52       0.00       0.13       0.52       8.55       5.24      13.79        0.01     0.01   0.745
  sub_90496                 18.52       0.00       0.13       0.35       9.89       3.50      13.39        0.01     0.01   0.723
  sub_90497                 18.52       0.00       0.13       0.31      10.16       3.14      13.30        0.01     0.01   0.718
  sub_90498                 18.52       0.00       0.13       0.59       8.04       5.90      13.94        0.02     0.02   0.753
  sub_90499                 18.52       0.00       0.12       1.02       4.68      10.28      14.96        0.02     0.02   0.808
  sub_90500                 18.52       0.00       0.13       0.75       6.78       7.54      14.33        0.02     0.01   0.774
  sub_90501                 18.52       0.00       0.13       0.33      10.03       3.31      13.34        0.01     0.01   0.721
  sub_90502                 18.52       0.00       0.13       0.65       7.59       6.49      14.08        0.01     0.01   0.761
  sub_90503                 18.52       0.00       0.13       0.36       9.78       3.64      13.42        0.01     0.01   0.725
  sub_90504                 18.52       0.00       0.13       0.34       9.98       3.38      13.36        0.01     0.01   0.721
  sub_90505                 18.52       0.00       0.13       0.39       9.53       3.97      13.49        0.01     0.01   0.729
  sub_90506                 18.52       0.00       0.13       0.43       9.25       4.33      13.58        0.01     0.01   0.733
  sub_90507                 18.52       0.00       0.13       0.45       9.09       4.53      13.63        0.01     0.01   0.736
  sub_90508                 18.52       0.00       0.13       0.44       9.20       4.40      13.59        0.01     0.01   0.734
  sub_90509                 18.52       0.00       0.13       0.90       5.61       9.08      14.68        0.01     0.01   0.793
  sub_90510                 18.52       0.00       0.13       0.41       9.43       4.10      13.52        0.01     0.01   0.730
  sub_90511                 18.52       0.00       0.13       0.70       7.18       7.02      14.21        0.01     0.01   0.767
  sub_90512                 18.52       0.00       0.13       0.46       9.00       4.66      13.66        0.01     0.01   0.738
  sub_90513                 18.52       0.00       0.13       0.32      10.13       3.19      13.31        0.02     0.02   0.719
  sub_90514                 18.52       0.00       0.13       0.42       9.32       4.24      13.56        0.02     0.01   0.732
  sub_90515                 18.52       0.00       0.13       0.74       6.87       7.43      14.30        0.02     0.01   0.772
  sub_90516                 18.52       0.00       0.12       1.03       4.60      10.38      14.99        0.01     0.01   0.809
  sub_90517                 18.52       0.00       0.13       0.75       6.81       7.51      14.32        0.01     0.01   0.773
  sub_90518                 18.52       0.00       0.13       0.22      10.85       2.25      13.10        0.01     0.01   0.707
  sub_90519                 18.52       0.00       0.13       0.83       6.17       8.35      14.51        0.03     0.02   0.784
  sub_90520                 18.52       0.00       0.13       0.81       6.34       8.12      14.46        0.02     0.01   0.781
  sub_90521                 18.52       0.00       0.13       0.48       8.90       4.79      13.69        0.01     0.01   0.739
  sub_90522                 18.52       0.00       0.13       0.38       9.63       3.83      13.46        0.01     0.01   0.727
  sub_90523                 18.52       0.00       0.13       0.47       8.92       4.76      13.68        0.02     0.01   0.739
  sub_90524                 18.52       0.00       0.13       0.80       6.44       8.00      14.43        0.02     0.02   0.779
  sub_90525                 18.52       0.00       0.12       1.00       4.84      10.07      14.91        0.04     0.03   0.806
  sub_90526                 18.52       0.00       0.13       0.80       6.37       8.09      14.45        0.01     0.01   0.781
  sub_90527                 18.52       0.00       0.12       1.04       4.56      10.44      15.00        0.01     0.01   0.810
  sub_90549                 18.52       0.00       0.13       0.75       6.76       7.58      14.34        0.01     0.01   0.774
  sub_90550                 18.52       0.00       0.13       0.00      12.57       0.00      12.57        0.01     0.01   0.679
  sub_90551                 18.52       0.00       0.13       0.88       5.77       8.86      14.63        0.01     0.01   0.790
  sub_90552                 18.52       0.00       0.13       0.36       9.79       3.63      13.42        0.04     0.04   0.725
  sub_90553                 18.52       0.00       0.13       0.85       6.05       8.49      14.55        0.01     0.01   0.786
  sub_90554                 18.52       0.00       0.13       0.80       6.37       8.09      14.45        0.01     0.01   0.781
  sub_90555                 18.52       0.00       0.12       0.98       5.00       9.87      14.87        0.01     0.01   0.803
  sub_90556                 18.52       0.00       0.12       1.08       4.27      10.81      15.09        0.02     0.02   0.815
  sub_90557                 18.52       0.00       0.13       0.55       8.30       5.57      13.87        0.01     0.01   0.749
  sub_90558                 18.52       0.00       0.13       0.56       8.26       5.62      13.88        0.02     0.02   0.750
  sub_90559                 18.52       0.00       0.13       0.88       5.80       8.82      14.62        0.02     0.01   0.790
  sub_90560                 18.52       0.00       0.13       0.72       6.98       7.28      14.27        0.02     0.02   0.770
  sub_90561                 18.52       0.00       0.13       0.64       7.60       6.48      14.08        0.02     0.02   0.760
  sub_90562                 18.52       0.00       0.13       0.60       7.97       5.99      13.97        0.02     0.01   0.754
  sub_90563                 18.52       0.00       0.13       0.56       8.23       5.66      13.89        0.02     0.01   0.750
  sub_90564                 18.52       0.00       0.13       0.49       8.81       4.90      13.71        0.01     0.01   0.740
  sub_90565                 18.52       0.00       0.13       0.69       7.22       6.97      14.19        0.01     0.01   0.767
  sub_90566                 18.52       0.00       0.13       0.71       7.08       7.16      14.24        0.01     0.01   0.769
  sub_90567                 18.52       0.00       0.13       0.85       6.03       8.52      14.55        0.01     0.01   0.786
  sub_90568                 18.52       0.00       0.13       0.00      12.57       0.00      12.57        0.01     0.00   0.679
  sub_90569                 18.52       0.00       0.13       0.78       6.55       7.85      14.40        0.01     0.01   0.778
  sub_90570                 18.52       0.00       0.13       0.93       5.39       9.36      14.75        0.01     0.01   0.797
  sub_90571                 18.52       0.00       0.13       0.50       8.71       5.03      13.74        0.01     0.01   0.742
  sub_90572                 18.52       0.00       0.13       0.50       8.74       4.99      13.73        0.01     0.01   0.742
  sub_90573                 18.52       0.00       0.13       0.33      10.00       3.35      13.35        0.01     0.01   0.721
  sub_90574                 18.52       0.00       0.13       0.38       9.66       3.80      13.46        0.01     0.01   0.727
  sub_90575                 18.52       0.00       0.13       0.62       7.80       6.21      14.02        0.02     0.01   0.757
  sub_90576                 18.52       0.00       0.13       0.67       7.39       6.75      14.14        0.02     0.01   0.764
  sub_90577                 18.52       0.00       0.13       0.65       7.54       6.55      14.10        0.01     0.01   0.761
  sub_90578                 18.52       0.00       0.13       0.57       8.19       5.71      13.90        0.02     0.02   0.751
  sub_90579                 18.52       0.00       0.13       0.48       8.90       4.78      13.68        0.02     0.01   0.739
  sub_90580                 18.52       0.00       0.12       0.99       4.95       9.93      14.88        0.01     0.01   0.804
  sub_90581                 18.52       0.00       0.13       0.80       6.43       8.01      14.44        0.01     0.01   0.780
  sub_90582                 18.52       0.00       0.13       0.63       7.75       6.29      14.03        0.01     0.01   0.758
  sub_90583                 18.52       0.00       0.13       0.78       6.54       7.86      14.40        0.01     0.01   0.778
  sub_90584                 18.52       0.00       0.13       0.44       9.19       4.40      13.60        0.01     0.01   0.734
  sub_90585                 18.52       0.00       0.13       0.44       9.20       4.39      13.59        0.02     0.01   0.734
  sub_90586                 18.52       0.00       0.13       0.48       8.87       4.83      13.70        0.01     0.01   0.740
  sub_90587                 18.52       0.00       0.13       0.53       8.49       5.32      13.81        0.01     0.01   0.746
  sub_90588                 18.52       0.00       0.13       0.36       9.76       3.66      13.42        0.01     0.01   0.725
  sub_90589                 18.52       0.00       0.13       0.60       7.98       5.99      13.97        0.01     0.01   0.754
  sub_90590                 18.52       0.00       0.13       0.57       8.15       5.77      13.91        0.02     0.01   0.751
  sub_90591                 18.52       0.00       0.13       0.39       9.56       3.92      13.49        0.01     0.01   0.728
  sub_90592                 18.52       0.00       0.13       0.38       9.65       3.81      13.46        0.01     0.01   0.727
  sub_90593                 18.52       0.00       0.13       0.51       8.62       5.15      13.77        0.01     0.01   0.744
  sub_90594                 18.52       0.00       0.13       0.63       7.69       6.36      14.05        0.02     0.02   0.759
  sub_90595                 18.52       0.00       0.13       0.64       7.65       6.42      14.06        0.01     0.01   0.760
  sub_90596                 18.52       0.00       0.13       0.36       9.78       3.64      13.42        0.01     0.01   0.725
  sub_90597                 18.52       0.00       0.13       0.85       6.02       8.54      14.56        0.01     0.01   0.786
  sub_90598                 18.52       0.00       0.13       0.84       6.07       8.47      14.54        0.01     0.01   0.785
  sub_90599                 18.52       0.00       0.13       0.62       7.79       6.23      14.02        0.01     0.01   0.757
  sub_90600                 18.52       0.00       0.13       0.56       8.23       5.66      13.89        0.01     0.01   0.750
  sub_90601                 18.52       0.00       0.13       0.94       5.32       9.44      14.77        0.01     0.01   0.798
  sub_90602                 18.52       0.00       0.13       0.70       7.18       7.02      14.21        0.01     0.01   0.767
  sub_90603                 18.52       0.00       0.13       0.89       5.73       8.92      14.65        0.01     0.01   0.791
  sub_90604                 18.52       0.00       0.13       0.59       8.00       5.96      13.96        0.01     0.01   0.754
  sub_90605                 18.52       0.00       0.13       0.58       8.07       5.87      13.94        0.02     0.02   0.753
  sub_90606                 18.52       0.00       0.13       0.66       7.51       6.59      14.11        0.01     0.01   0.762
  sub_90607                 18.52       0.00       0.13       0.68       7.32       6.85      14.16        0.01     0.01   0.765
  sub_90608                 18.52       0.00       0.13       0.82       6.29       8.19      14.48        0.01     0.01   0.782
  sub_90609                 18.52       0.00       0.13       0.96       5.19       9.62      14.81        0.01     0.01   0.800
  sub_90610                 18.52       0.00       0.13       0.93       5.41       9.33      14.74        0.01     0.01   0.796
  sub_90611                 18.52       0.00       0.13       0.83       6.17       8.34      14.51        0.01     0.01   0.784
  sub_90612                 18.52       0.00       0.13       0.94       5.34       9.42      14.76        0.01     0.01   0.797
  sub_90613                 18.52       0.00       0.12       1.00       4.87      10.04      14.91        0.02     0.01   0.805
  sub_90615                 18.52       0.00       0.13       0.85       6.01       8.55      14.56        0.02     0.02   0.786
  sub_90616                 18.52       0.00       0.13       0.44       9.21       4.38      13.59        0.02     0.02   0.734
  sub_90617                 18.52       0.00       0.13       0.56       8.22       5.67      13.89        0.02     0.02   0.750
  sub_90618                 18.52       0.00       0.13       0.36       9.77       3.65      13.42        0.03     0.02   0.725
  sub_90619                 18.52       0.00       0.13       0.06      12.12       0.59      12.71        0.01     0.01   0.686
  sub_90620                 18.52       0.00       0.13       0.38       9.63       3.84      13.47        0.01     0.01   0.727
  sub_90621                 18.52       0.00       0.13       0.81       6.34       8.11      14.46        0.03     0.03   0.781
  sub_90623                 18.52       0.00       0.13       0.69       7.24       6.94      14.19        0.03     0.02   0.766
  sub_90624                 18.52       0.00       0.13       0.67       7.43       6.70      14.13        0.01     0.01   0.763
  sub_90625                 18.52       0.00       0.13       0.57       8.19       5.71      13.90        0.01     0.01   0.751
  sub_90626                 18.52       0.00       0.13       0.51       8.66       5.09      13.76        0.01     0.01   0.743
  sub_90627                 18.52       0.00       0.13       0.90       5.64       9.03      14.67        0.02     0.01   0.792
  sub_90628                 18.52       0.00       0.13       0.74       6.90       7.40      14.29        0.03     0.02   0.772
  sub_90629                 18.52       0.00       0.13       0.85       5.98       8.59      14.57        0.02     0.02   0.787
  sub_90630                 18.52       0.00       0.13       0.36       9.79       3.62      13.41        0.01     0.01   0.724
  sub_90631                 18.52       0.00       0.13       0.56       8.23       5.66      13.89        0.01     0.01   0.750
  sub_90632                 18.52       0.00       0.13       0.58       8.07       5.87      13.94        0.01     0.01   0.753
  sub_90633                 18.52       0.00       0.13       0.36       9.81       3.60      13.41        0.01     0.01   0.724
  sub_90634                 18.52       0.00       0.13       0.54       8.38       5.46      13.84        0.01     0.01   0.748
  sub_90635                 18.52       0.00       0.13       0.80       6.44       8.00      14.43        0.01     0.01   0.779
  sub_90636                 18.52       0.00       0.13       0.60       7.93       6.05      13.98        0.01     0.01   0.755
  sub_90637                 18.52       0.00       0.13       0.56       8.27       5.61      13.88        0.01     0.01   0.750
  sub_90638                 18.52       0.00       0.13       0.33      10.06       3.28      13.33        0.02     0.02   0.720
  sub_90639                 18.52       0.00       0.13       0.85       6.00       8.56      14.56        0.02     0.01   0.787
  sub_90640                 18.52       0.00       0.13       0.43       9.27       4.30      13.57        0.02     0.01   0.733
  sub_90641                 18.52       0.00       0.13       0.53       8.51       5.29      13.80        0.02     0.01   0.745
  sub_90642                 18.52       0.00       0.13       0.66       7.45       6.67      14.12        0.01     0.01   0.763
  sub_90643                 18.52       0.00       0.13       0.43       9.29       4.28      13.57        0.02     0.02   0.733
  sub_90644                 18.52       0.00       0.13       0.37       9.73       3.70      13.43        0.01     0.01   0.725
  sub_90645                 18.52       0.00       0.13       0.52       8.55       5.24      13.79        0.01     0.01   0.745
  sub_90646                 18.52       0.00       0.12       0.98       5.03       9.83      14.86        0.01     0.01   0.802
  sub_90647                 18.52       0.00       0.12       1.35       2.20      13.52      15.72        0.02     0.01   0.849
  sub_90648                 18.52       0.00       0.13       0.35       9.84       3.56      13.40        0.01     0.01   0.724
  sub_90649                 18.52       0.00       0.13       0.52       8.54       5.25      13.79        0.01     0.01   0.745
  sub_90650                 18.52       0.00       0.13       0.51       8.61       5.16      13.77        0.03     0.02   0.744
  sub_90651                 18.52       0.00       0.13       0.42       9.31       4.25      13.56        0.01     0.01   0.732
  sub_90652                 18.52       0.00       0.13       0.54       8.44       5.39      13.82        0.01     0.01   0.747
  sub_90653                 18.52       0.00       0.13       0.65       7.54       6.55      14.10        0.01     0.01   0.761
  sub_90654                 18.52       0.00       0.13       0.75       6.81       7.51      14.32        0.00     0.00   0.773
  sub_90655                 18.52       0.00       0.13       0.48       8.84       4.87      13.70        0.01     0.01   0.740
  sub_90656                 18.52       0.00       0.13       0.86       5.94       8.65      14.58        0.02     0.01   0.788
  sub_90657                 18.52       0.00       0.13       0.90       5.60       9.09      14.69        0.02     0.01   0.793
  sub_90658                 18.52       0.00       0.13       0.52       8.59       5.19      13.78        0.02     0.01   0.744
  sub_90659                 18.52       0.00       0.12       1.18       3.47      11.86      15.33        0.01     0.01   0.828
  sub_90662                 18.52       0.00       0.13       0.60       7.92       6.07      13.98        0.00     0.00   0.755
  sub_90663                 18.52       0.00       0.13       0.82       6.21       8.29      14.50        0.04     0.03   0.783
  sub_90664                 18.52       0.00       0.12       1.63       0.00      16.38      16.38        0.00     0.00   0.885
  sub_90665                 18.52       0.00       0.13       0.76       6.70       7.66      14.35        0.01     0.01   0.775
  sub_90669                 18.52       0.00       0.13       0.62       7.82       6.20      14.01        0.01     0.00   0.757
  sub_90670                 18.52       0.00       0.13       0.45       9.09       4.54      13.63        0.01     0.01   0.736
  sub_90671                 18.52       0.00       0.13       0.50       8.75       4.99      13.73        0.00     0.00   0.742
  sub_90672                 18.52       0.00       0.13       0.66       7.49       6.63      14.11        0.01     0.01   0.762
  sub_90673                 18.52       0.00       0.13       0.84       6.09       8.44      14.54        0.01     0.01   0.785
  sub_90674                 18.52       0.00       0.13       0.24      10.70       2.45      13.14        0.02     0.02   0.710
  sub_90675                 18.52       0.00       0.13       0.37       9.71       3.73      13.44        0.02     0.02   0.726
  sub_90676                 18.52       0.00       0.13       0.55       8.35       5.51      13.85        0.02     0.01   0.748
  sub_90677                 18.52       0.00       0.13       0.80       6.40       8.05      14.44        0.01     0.01   0.780
  sub_90678                 18.52       0.00       0.13       0.72       7.04       7.21      14.25        0.01     0.01   0.770
  sub_90679                 18.52       0.00       0.13       0.79       6.49       7.93      14.42        0.02     0.02   0.779
  sub_90680                 18.52       0.00       0.13       0.45       9.08       4.55      13.63        0.02     0.02   0.736
  sub_90681                 18.52       0.00       0.13       0.80       6.39       8.06      14.45        0.01     0.01   0.780
  sub_90682                 18.52       0.00       0.13       0.72       7.01       7.24      14.26        0.01     0.01   0.770
  sub_90683                 18.52       0.00       0.12       1.19       3.39      11.96      15.35        0.01     0.01   0.829
  sub_90684                 18.52       0.00       0.13       0.27      10.53       2.67      13.19        0.01     0.01   0.712
  sub_90685                 18.52       0.00       0.13       0.19      11.08       1.95      13.03        0.01     0.00   0.703
  sub_90686                 18.52       0.00       0.13       0.72       7.04       7.21      14.25        0.01     0.01   0.770
  sub_90688                 18.52       0.00       0.13       0.54       8.38       5.46      13.84        0.01     0.01   0.748
  sub_90689                 18.52       0.00       0.13       0.87       5.87       8.74      14.60        0.01     0.01   0.789
  sub_90690                 18.52       0.00       0.13       0.68       7.31       6.85      14.17        0.01     0.01   0.765
  sub_90691                 18.52       0.00       0.13       0.59       8.05       5.89      13.94        0.01     0.01   0.753
  sub_90692                 18.52       0.00       0.13       0.51       8.66       5.10      13.76        0.01     0.01   0.743
  sub_90693                 18.52       0.00       0.13       0.96       5.18       9.64      14.81        0.01     0.00   0.800
  sub_90694                 18.52       0.00       0.12       1.31       2.43      13.21      15.65        0.00     0.00   0.845
  sub_90695                 18.52       0.00       0.13       0.73       6.91       7.37      14.29        0.01     0.00   0.772
  sub_90696                 18.52       0.00       0.13       0.81       6.29       8.19      14.48        0.01     0.00   0.782
  sub_90697                 18.52       0.00       0.13       0.84       6.11       8.43      14.53        0.01     0.00   0.785
  sub_90698                 18.52       0.00       0.13       0.95       5.27       9.51      14.78        0.00     0.00   0.798
  sub_90699                 18.52       0.00       0.12       1.12       3.90      11.30      15.20        0.00     0.00   0.821
  sub_90700                 18.52       0.00       0.13       0.31      10.18       3.12      13.30        0.00     0.00   0.718
  sub_90701                 18.52       0.00       0.13       0.29      10.35       2.89      13.24        0.00     0.00   0.715
  sub_90702                 18.52       0.00       0.13       0.33      10.06       3.28      13.33        0.00     0.00   0.720
  sub_90703                 18.52       0.00       0.13       0.84       6.12       8.41      14.53        0.01     0.01   0.785
  sub_90704                 18.52       0.00       0.13       0.81       6.36       8.10      14.46        0.01     0.01   0.781
  sub_90705                 18.52       0.00       0.13       0.87       5.85       8.75      14.61        0.02     0.02   0.789
  sub_90706                 18.52       0.00       0.13       0.60       7.97       5.99      13.97        0.01     0.00   0.754
  sub_90707                 18.52       0.00       0.13       0.40       9.51       4.00      13.50        0.01     0.00   0.729
  sub_90708                 18.52       0.00       0.13       0.97       5.10       9.73      14.84        0.02     0.02   0.801
  sub_90709                 18.52       0.00       0.13       0.72       7.04       7.21      14.25        0.01     0.01   0.770
  sub_90710                 18.52       0.00       0.13       0.94       5.35       9.41      14.76        0.02     0.02   0.797
  sub_90724                 18.52       0.00       0.13       0.98       5.03       9.83      14.86        0.01     0.01   0.802
  sub_90725                 18.52       0.00       0.12       1.63       0.00      16.38      16.38        0.00     0.00   0.885
  sub_90726                 18.52       0.00       0.12       1.63       0.00      16.38      16.38        0.00     0.00   0.885
  sub_90727                 18.52       0.00       0.12       1.63       0.00      16.38      16.38        0.00     0.00   0.885
  sub_90728                 18.52       0.00       0.12       1.63       0.00      16.38      16.38        0.01     0.01   0.885
  sub_90729                 18.52       0.00       0.12       1.63       0.00      16.38      16.38        0.00     0.00   0.885
  sub_90730                 18.52       0.00       0.12       1.63       0.00      16.38      16.38        0.01     0.01   0.885
  sub_90731                 18.52       0.00       0.12       1.63       0.00      16.38      16.38        0.01     0.01   0.885
  sub_90732                 18.52       0.00       0.12       1.63       0.00      16.38      16.38        0.00     0.00   0.885
  sub_90733                 18.52       0.00       0.13       0.48       8.87       4.82      13.69        0.01     0.01   0.740
  
  
  ******************
  Node Depth Summary
  ******************
  
  ---------------------------------------------------------------------------------
                                 Average  Maximum  Maximum  Time of Max    Reported
                                   Depth    Depth      HGL   Occurrence   Max Depth
  Node                 Type       Meters   Meters   Meters  days hr:min      Meters
  ---------------------------------------------------------------------------------
  j_9006F              JUNCTION     0.09     0.47     0.11     0  02:23        0.47
  j_90334              JUNCTION     0.04     0.28     0.07     0  02:20        0.28
  j_90335              JUNCTION     0.07     0.48     0.07     0  02:19        0.45
  j_90336              JUNCTION     0.06     0.27     0.10     0  02:15        0.27
  j_90363              JUNCTION     0.09     0.42     0.07     0  02:20        0.42
  j_90364              JUNCTION     0.09     0.42     0.07     0  02:20        0.41
  j_90365              JUNCTION     0.09     0.42     0.07     0  02:20        0.41
  j_90366              JUNCTION     0.05     0.37     0.06     0  02:19        0.36
  j_90367              JUNCTION     0.11     0.54     0.05     0  02:20        0.54
  j_90368              JUNCTION     0.04     0.34     0.05     0  02:20        0.34
  j_90369              JUNCTION     0.05     0.36     0.06     0  02:19        0.34
  j_90370              JUNCTION     0.11     0.57     0.06     0  02:19        0.55
  j_90371              JUNCTION     0.13     0.58     0.02     0  02:20        0.58
  j_90372              JUNCTION     0.03     0.27     0.02     0  02:20        0.27
  j_90373              JUNCTION     0.09     0.50     0.03     0  02:20        0.49
  j_90374              JUNCTION     0.03     0.30     0.02     0  02:20        0.29
  j_90375              JUNCTION     0.05     0.36     0.02     0  02:20        0.35
  j_90376              JUNCTION     0.02     0.14    -0.01     0  02:20        0.14
  j_90377              JUNCTION     0.02     0.16    -0.01     0  02:20        0.15
  j_90378              JUNCTION     0.05     0.26    -0.14     0  02:20        0.26
  j_90379              JUNCTION     0.03     0.13    -0.12     0  02:15        0.13
  j_90380              JUNCTION     0.04     0.22    -0.11     0  02:20        0.22
  j_90381              JUNCTION     0.07     0.35    -0.10     0  02:20        0.34
  j_90382              JUNCTION     0.19     0.81    -0.11     0  02:20        0.81
  j_90383              JUNCTION     0.17     0.75    -0.07     0  02:20        0.74
  j_90384              JUNCTION     0.09     0.39    -0.07     0  02:20        0.38
  j_90385              JUNCTION     0.04     0.30    -0.07     0  02:20        0.29
  j_90386              JUNCTION     0.03     0.16    -0.07     0  02:20        0.15
  j_90387              JUNCTION     0.03     0.22     0.02     0  02:20        0.21
  j_90388              JUNCTION     0.08     0.41     0.02     0  02:20        0.40
  j_90389              JUNCTION     0.14     0.61     0.00     0  02:20        0.61
  j_90390              JUNCTION     0.12     0.59     0.02     0  02:20        0.58
  j_90391              JUNCTION     0.07     0.28     0.04     0  02:15        0.28
  j_90392              JUNCTION     0.08     0.31     0.06     0  02:15        0.31
  j_90393              JUNCTION     0.06     0.28     0.09     0  02:15        0.28
  j_90394              JUNCTION     0.04     0.21     0.11     0  02:15        0.20
  j_90395              JUNCTION     0.03     0.19     0.11     0  02:15        0.19
  j_90396              JUNCTION     0.02     0.13     0.11     0  02:15        0.13
  j_90397              JUNCTION     0.17     0.72    -0.05     0  02:20        0.71
  j_90398              JUNCTION     0.10     0.57    -0.05     0  02:20        0.56
  j_90399              JUNCTION     0.04     0.26    -0.05     0  02:21        0.25
  j_90400              JUNCTION     0.02     0.21    -0.05     0  02:21        0.18
  j_90401              JUNCTION     0.03     0.18    -0.13     0  02:22        0.16
  j_90402              JUNCTION     0.04     0.32    -0.04     0  02:20        0.28
  j_90403              JUNCTION     0.02     0.21    -0.04     0  02:21        0.17
  j_90404              JUNCTION     0.04     0.26    -0.04     0  02:21        0.24
  j_90405              JUNCTION     0.09     0.52    -0.04     0  02:20        0.51
  j_90406              JUNCTION     0.08     0.46    -0.04     0  02:20        0.46
  j_90407              JUNCTION     0.05     0.38    -0.03     0  02:20        0.37
  j_90408              JUNCTION     0.04     0.30    -0.02     0  02:20        0.30
  j_90427              JUNCTION     0.12     0.64     0.21     0  02:18        0.59
  j_90428              JUNCTION     0.09     0.53     0.16     0  02:19        0.51
  j_90430              JUNCTION     0.05     0.21    -1.36     0  02:21        0.20
  j_90433              JUNCTION     0.05     0.27    -0.10     0  02:21        0.26
  j_90434              JUNCTION     0.09     0.33    -0.10     0  02:21        0.32
  j_90435              JUNCTION     0.04     0.21    -0.16     0  02:21        0.20
  j_90436              JUNCTION     0.06     0.28    -0.18     0  02:15        0.28
  j_90437              JUNCTION     0.22     0.81    -0.55     0  02:21        0.80
  j_90438              JUNCTION     0.26     0.92    -0.43     0  02:20        0.92
  j_90439              JUNCTION     0.03     0.21    -0.00     0  02:20        0.21
  j_90440              JUNCTION     0.04     0.29     0.13     0  02:20        0.28
  j_90441              JUNCTION     0.02     0.13    -0.00     0  02:20        0.12
  j_90442              JUNCTION     0.18     0.64     0.00     0  02:20        0.64
  j_90443              JUNCTION     0.26     0.96    -0.34     0  02:20        0.95
  j_90444              JUNCTION     0.19     0.86    -0.25     0  02:20        0.86
  j_90445              JUNCTION     0.04     0.20    -0.23     0  02:15        0.20
  j_90446              JUNCTION     0.03     0.17    -0.19     0  02:15        0.17
  j_90447              JUNCTION     0.03     0.14    -0.11     0  02:15        0.14
  j_90448              JUNCTION     0.02     0.13    -0.14     0  02:15        0.13
  j_90449              JUNCTION     0.06     0.28    -0.20     0  02:20        0.28
  j_90450              JUNCTION     0.05     0.27    -0.20     0  02:20        0.27
  j_90451              JUNCTION     0.19     0.82    -0.20     0  02:20        0.82
  j_90452              JUNCTION     0.04     0.28    -0.14     0  02:20        0.27
  j_90453              JUNCTION     0.19     0.82    -0.14     0  02:20        0.81
  j_90454              JUNCTION     0.05     0.28    -0.19     0  02:21        0.26
  j_90455              JUNCTION     0.07     0.33    -0.21     0  02:21        0.31
  j_90456              JUNCTION     0.09     0.43    -0.23     0  02:20        0.42
  j_90457              JUNCTION     0.12     0.51    -0.25     0  02:20        0.50
  j_90459              JUNCTION     0.17     0.75    -0.30     0  02:20        0.75
  j_90460              JUNCTION     0.13     0.70    -0.26     0  02:20        0.70
  j_90461              JUNCTION     0.20     0.82    -0.26     0  02:20        0.82
  j_90462              JUNCTION     0.17     0.80    -0.18     0  02:20        0.79
  j_90463              JUNCTION     0.11     0.66    -0.07     0  02:20        0.63
  j_90464              JUNCTION     0.09     0.60    -0.03     0  02:20        0.54
  j_90465              JUNCTION     0.07     0.54     0.00     0  02:20        0.45
  j_90466              JUNCTION     0.05     0.39    -0.05     0  02:20        0.37
  j_90467              JUNCTION     0.07     0.41    -0.01     0  02:20        0.40
  j_90468              JUNCTION     0.09     0.51    -0.01     0  02:19        0.51
  j_90469              JUNCTION     0.09     0.55    -0.01     0  02:19        0.55
  j_90470              JUNCTION     0.11     0.65    -0.02     0  02:19        0.65
  j_90471              JUNCTION     0.12     0.67    -0.03     0  02:19        0.67
  j_90477              JUNCTION     0.07     0.60     0.29     0  02:19        0.52
  j_90478              JUNCTION     0.11     0.80     0.39     0  02:17        0.60
  j_90479              JUNCTION     0.08     0.85     0.53     0  02:17        0.51
  j_90480              JUNCTION     0.06     0.53     0.28     0  02:19        0.45
  j_90481              JUNCTION     0.11     0.73     0.33     0  02:17        0.60
  j_90482              JUNCTION     0.13     0.68     0.23     0  02:17        0.64
  j_90483              JUNCTION     0.08     0.67     0.39     0  02:19        0.47
  j_90484              JUNCTION     0.05     0.41     0.21     0  02:20        0.39
  j_90485              JUNCTION     0.09     0.71     0.38     0  02:18        0.51
  j_90486              JUNCTION     0.14     0.70     0.24     0  02:18        0.62
  j_90487              JUNCTION     0.14     0.67     0.15     0  02:18        0.66
  j_90488              JUNCTION     0.17     0.69     0.09     0  02:20        0.68
  j_90489              JUNCTION     0.05     0.34     0.11     0  02:20        0.33
  j_90490              JUNCTION     0.07     0.44     0.13     0  02:20        0.43
  j_90491              JUNCTION     0.16     0.72     0.18     0  02:19        0.72
  j_90492              JUNCTION     0.19     0.76     0.14     0  02:19        0.76
  j_90493              JUNCTION     0.07     0.48     0.16     0  02:20        0.46
  j_90494              JUNCTION     0.22     0.86     0.12     0  02:20        0.86
  j_90495              JUNCTION     0.22     0.85     0.14     0  02:20        0.84
  j_90496              JUNCTION     0.08     0.45     0.13     0  02:20        0.44
  j_90497              JUNCTION     0.04     0.30     0.12     0  02:20        0.29
  j_90498              JUNCTION     0.12     0.59     0.11     0  02:20        0.58
  j_90499              JUNCTION     0.13     0.59     0.12     0  02:20        0.58
  j_90500              JUNCTION     0.09     0.50     0.12     0  02:21        0.49
  j_90501              JUNCTION     0.07     0.42     0.15     0  02:21        0.40
  j_90502              JUNCTION     0.06     0.38     0.15     0  02:20        0.36
  j_90503              JUNCTION     0.06     0.38     0.15     0  02:20        0.36
  j_90504              JUNCTION     0.09     0.43     0.15     0  02:21        0.41
  j_90505              JUNCTION     0.14     0.64     0.14     0  02:20        0.64
  j_90506              JUNCTION     0.15     0.66     0.15     0  02:20        0.65
  j_90507              JUNCTION     0.09     0.52     0.15     0  02:20        0.51
  j_90508              JUNCTION     0.12     0.61     0.16     0  02:20        0.60
  j_90509              JUNCTION     0.06     0.41     0.16     0  02:20        0.39
  j_90510              JUNCTION     0.08     0.48     0.17     0  02:20        0.46
  j_90511              JUNCTION     0.20     0.76     0.17     0  02:20        0.75
  j_90512              JUNCTION     0.17     0.71     0.17     0  02:20        0.70
  j_90513              JUNCTION     0.06     0.38     0.12     0  02:20        0.37
  j_90514              JUNCTION     0.07     0.42     0.10     0  02:20        0.41
  j_90515              JUNCTION     0.10     0.47     0.06     0  02:20        0.46
  j_90516              JUNCTION     0.10     0.38    -0.06     0  02:20        0.38
  j_90517              JUNCTION     0.17     0.81    -0.11     0  02:20        0.80
  j_90518              JUNCTION     0.17     0.81    -0.07     0  02:20        0.80
  j_90519              JUNCTION     0.16     0.78    -0.05     0  02:20        0.78
  j_90520              JUNCTION     0.07     0.31    -0.04     0  02:20        0.30
  j_90521              JUNCTION     0.03     0.21    -0.03     0  02:20        0.19
  j_90522              JUNCTION     0.05     0.24    -0.03     0  02:20        0.22
  j_90523              JUNCTION     0.03     0.18    -0.02     0  02:15        0.18
  j_90524              JUNCTION     0.14     0.64     0.19     0  02:20        0.63
  j_90525              JUNCTION     0.11     0.56     0.21     0  02:21        0.54
  j_90526              JUNCTION     0.08     0.48     0.22     0  02:20        0.45
  j_90527              JUNCTION     0.06     0.40     0.22     0  02:21        0.37
  j_90549              JUNCTION     0.05     0.22    -0.19     0  02:15        0.22
  j_90550              JUNCTION     0.29     0.86    -0.37     0  02:21        0.85
  j_90551              JUNCTION     0.02     0.08     0.13     0  02:11        0.08
  j_90553              JUNCTION     0.12     0.87     0.49     0  02:17        0.66
  j_90554              JUNCTION     0.09     0.84     0.50     0  02:17        0.62
  j_90555              JUNCTION     0.06     0.96     0.72     0  02:17        0.52
  j_90556              JUNCTION     0.11     0.84     0.47     0  02:17        0.65
  j_90557              JUNCTION     0.12     0.82     0.44     0  02:17        0.65
  j_90558              JUNCTION     0.22     0.93     0.22     0  02:19        0.92
  j_90559              JUNCTION     0.16     0.80     0.22     0  02:19        0.80
  j_90560              JUNCTION     0.15     0.82     0.26     0  02:19        0.78
  j_90561              JUNCTION     0.10     0.88     0.50     0  02:17        0.58
  j_90562              JUNCTION     0.13     0.88     0.43     0  02:15        0.64
  j_90563              JUNCTION     0.20     0.87     0.17     0  02:19        0.87
  j_90564              JUNCTION     0.25     0.96     0.15     0  02:19        0.96
  j_90565              JUNCTION     0.08     0.49     0.15     0  02:20        0.49
  j_90566              JUNCTION     0.04     0.34     0.14     0  02:20        0.33
  j_90567              JUNCTION     0.02     0.10     0.13     0  02:11        0.10
  j_90568              JUNCTION     0.28     0.90    -0.21     0  02:21        0.88
  j_90569              JUNCTION     0.09     0.46     0.14     0  02:20        0.45
  j_90570              JUNCTION     0.02     0.22     0.14     0  02:20        0.21
  j_90571              JUNCTION     0.10     0.88     0.45     0  02:17        0.56
  j_90572              JUNCTION     0.27     0.98     0.12     0  02:19        0.98
  j_90573              JUNCTION     0.07     0.48     0.14     0  02:19        0.47
  j_90574              JUNCTION     0.24     0.89     0.09     0  02:20        0.89
  j_90575              JUNCTION     0.30     0.97     0.06     0  02:20        0.96
  j_90576              JUNCTION     0.27     0.91    -0.01     0  02:20        0.90
  j_90577              JUNCTION     0.28     0.92    -0.06     0  02:20        0.91
  j_90578              JUNCTION     0.26     0.89    -0.06     0  02:21        0.88
  j_90579              JUNCTION     0.23     0.82    -0.06     0  02:22        0.81
  j_90580              JUNCTION     0.03     0.26     0.13     0  02:21        0.24
  j_90581              JUNCTION     0.06     0.37     0.13     0  02:20        0.35
  j_90582              JUNCTION     0.06     0.37     0.13     0  02:20        0.34
  j_90583              JUNCTION     0.07     0.42     0.11     0  02:20        0.41
  j_90584              JUNCTION     0.09     0.52     0.17     0  02:19        0.45
  j_90585              JUNCTION     0.26     0.93     0.10     0  02:20        0.91
  j_90586              JUNCTION     0.26     0.96     0.14     0  02:20        0.93
  j_90587              JUNCTION     0.25     0.95     0.16     0  02:20        0.92
  j_90588              JUNCTION     0.09     0.52     0.16     0  02:20        0.50
  j_90589              JUNCTION     0.07     0.44     0.16     0  02:20        0.43
  j_90590              JUNCTION     0.06     0.41     0.16     0  02:20        0.40
  j_90591              JUNCTION     0.19     0.79     0.18     0  02:20        0.78
  j_90592              JUNCTION     0.22     0.86     0.19     0  02:19        0.84
  j_90593              JUNCTION     0.26     0.97     0.18     0  02:20        0.94
  j_90594              JUNCTION     0.21     0.90     0.20     0  02:19        0.86
  j_90595              JUNCTION     0.09     0.56     0.22     0  02:20        0.50
  j_90596              JUNCTION     0.08     0.54     0.22     0  02:19        0.50
  j_90597              JUNCTION     0.08     0.52     0.24     0  02:20        0.45
  j_90598              JUNCTION     0.06     0.48     0.23     0  02:20        0.46
  j_90599              JUNCTION     0.08     0.55     0.26     0  02:19        0.46
  j_90600              JUNCTION     0.06     0.42     0.20     0  02:20        0.39
  j_90601              JUNCTION     0.05     0.40     0.23     0  02:20        0.33
  j_90602              JUNCTION     0.08     0.64     0.37     0  02:19        0.46
  j_90603              JUNCTION     0.08     0.54     0.25     0  02:19        0.48
  j_90604              JUNCTION     0.10     0.57     0.21     0  02:19        0.55
  j_90605              JUNCTION     0.14     0.67     0.21     0  02:19        0.65
  j_90606              JUNCTION     0.14     0.69     0.26     0  02:20        0.62
  j_90607              JUNCTION     0.11     0.62     0.24     0  02:20        0.57
  j_90608              JUNCTION     0.10     0.58     0.24     0  02:19        0.53
  j_90609              JUNCTION     0.05     0.39     0.22     0  02:20        0.37
  j_90610              JUNCTION     0.07     0.46     0.24     0  02:20        0.42
  j_90611              JUNCTION     0.08     0.60     0.33     0  02:20        0.45
  j_90612              JUNCTION     0.06     0.43     0.22     0  02:20        0.41
  j_90613              JUNCTION     0.04     0.33     0.23     0  02:20        0.29
  j_90615              JUNCTION     0.03     0.15    -0.14     0  02:15        0.15
  j_90616              JUNCTION     0.04     0.20    -0.12     0  02:20        0.20
  j_90617              JUNCTION     0.03     0.15    -0.08     0  02:20        0.15
  j_90618              JUNCTION     0.06     0.30    -0.07     0  02:20        0.29
  j_90619              JUNCTION     0.29     0.92    -0.08     0  02:20        0.91
  j_90620              JUNCTION     0.32     0.98    -0.07     0  02:20        0.97
  j_90621              JUNCTION     0.29     0.94    -0.04     0  02:21        0.93
  j_90623              JUNCTION     0.25     0.89    -0.01     0  02:21        0.88
  j_90624              JUNCTION     0.19     0.78    -0.01     0  02:21        0.77
  j_90625              JUNCTION     0.17     0.74     0.04     0  02:19        0.72
  j_90626              JUNCTION     0.22     0.83     0.01     0  02:21        0.83
  j_90627              JUNCTION     0.25     0.89     0.01     0  02:21        0.89
  j_90628              JUNCTION     0.09     0.44     0.03     0  02:22        0.44
  j_90629              JUNCTION     0.07     0.39     0.04     0  02:22        0.38
  j_90630              JUNCTION     0.04     0.16    -0.03     0  02:15        0.16
  j_90631              JUNCTION     0.09     0.47     0.05     0  02:22        0.46
  j_90632              JUNCTION     0.10     0.49     0.04     0  02:23        0.49
  j_90633              JUNCTION     0.10     0.52     0.04     0  02:23        0.51
  j_90634              JUNCTION     0.27     0.91     0.03     0  02:22        0.91
  j_90635              JUNCTION     0.18     0.76     0.06     0  02:19        0.73
  j_90636              JUNCTION     0.14     0.82     0.25     0  02:19        0.61
  j_90637              JUNCTION     0.19     0.76     0.05     0  02:21        0.75
  j_90638              JUNCTION     0.12     0.53     0.05     0  02:21        0.53
  j_90639              JUNCTION     0.09     0.45     0.05     0  02:22        0.45
  j_90640              JUNCTION     0.06     0.34     0.05     0  02:23        0.34
  j_90641              JUNCTION     0.21     0.79    -0.05     0  02:18        0.77
  j_90642              JUNCTION     0.16     0.67    -0.06     0  02:22        0.66
  j_90643              JUNCTION     0.16     0.66    -0.06     0  02:23        0.64
  j_90644              JUNCTION     0.03     0.14    -0.01     0  02:15        0.14
  j_90645              JUNCTION     0.01     0.06     0.13     0  02:15        0.06
  j_90646              JUNCTION     0.05     0.19     0.09     0  02:15        0.19
  j_90647              JUNCTION     0.02     0.09     0.12     0  02:15        0.09
  j_90648              JUNCTION     0.06     0.35     0.06     0  02:22        0.34
  j_90649              JUNCTION     0.05     0.27     0.06     0  02:23        0.27
  j_90650              JUNCTION     0.10     0.44     0.06     0  02:22        0.44
  j_90651              JUNCTION     0.09     0.90     0.46     0  02:20        0.48
  j_90652              JUNCTION     0.09     0.53     0.11     0  02:20        0.46
  j_90653              JUNCTION     0.04     0.30     0.06     0  02:20        0.28
  j_90654              JUNCTION     0.17     0.68     0.08     0  02:24        0.68
  j_90655              JUNCTION     0.20     0.73     0.07     0  02:24        0.73
  j_90656              JUNCTION     0.20     0.75     0.06     0  02:21        0.75
  j_90657              JUNCTION     0.02     0.09     0.32     0  02:15        0.09
  j_90658              JUNCTION     0.03     0.14     0.27     0  02:15        0.14
  j_90659              JUNCTION     0.03     0.15     0.17     0  02:12        0.15
  j_90662              JUNCTION     0.03     0.19    -0.13     0  02:20        0.18
  j_90663              JUNCTION     0.11     0.66     0.23     0  02:19        0.65
  j_90664              JUNCTION     0.05     0.33     0.06     0  02:22        0.32
  j_90665              JUNCTION     0.27     0.90    -0.07     0  02:20        0.89
  j_90669              JUNCTION     0.12     0.42     0.19     0  02:20        0.42
  j_90670              JUNCTION     0.13     0.45     0.20     0  02:20        0.44
  j_90671              JUNCTION     0.14     0.46     0.20     0  02:18        0.46
  j_90672              JUNCTION     0.12     0.56     0.10     0  02:24        0.56
  j_90673              JUNCTION     0.16     0.63     0.10     0  02:24        0.63
  j_90674              JUNCTION     0.17     0.69     0.09     0  02:24        0.69
  j_90675              JUNCTION     0.11     0.40     0.18     0  02:20        0.40
  j_90676              JUNCTION     0.12     0.43     0.19     0  02:20        0.43
  j_90677              JUNCTION     0.16     0.49     0.20     0  02:19        0.49
  j_90678              JUNCTION     0.06     0.31     0.21     0  02:20        0.30
  j_90679              JUNCTION     0.04     0.23     0.21     0  02:19        0.23
  j_90680              JUNCTION     0.11     0.44     0.14     0  02:20        0.44
  j_90681              JUNCTION     0.13     0.50     0.12     0  02:24        0.50
  j_90682              JUNCTION     0.02     0.15     0.12     0  02:24        0.15
  j_90683              JUNCTION     0.13     0.56     0.11     0  02:24        0.56
  j_90684              JUNCTION     0.09     0.47     0.11     0  02:23        0.47
  j_90685              JUNCTION     0.02     0.07     0.18     0  02:15        0.07
  j_90686              JUNCTION     0.11     0.51     0.11     0  02:23        0.51
  j_90688              JUNCTION     0.02     0.08     0.53     0  02:15        0.08
  j_90689              JUNCTION     0.04     0.19    -0.11     0  02:15        0.19
  j_90690              JUNCTION     0.04     0.18    -0.07     0  02:15        0.18
  j_90691              JUNCTION     0.02     0.10     0.20     0  02:15        0.10
  j_90692              JUNCTION     0.01     0.07     0.27     0  02:15        0.07
  j_90693              JUNCTION     0.01     0.05     0.08     0  02:15        0.05
  j_90694              JUNCTION     0.02     0.08     0.14     0  02:15        0.08
  j_90695              JUNCTION     0.01     0.07     0.57     0  02:15        0.07
  j_90696              JUNCTION     0.02     0.10     0.10     0  02:15        0.10
  j_90697              JUNCTION     0.03     0.14     0.07     0  02:15        0.14
  j_90698              JUNCTION     0.03     0.16     0.04     0  02:15        0.16
  j_90699              JUNCTION     0.03     0.17    -0.01     0  02:15        0.17
  j_90700              JUNCTION     0.01     0.05     0.55     0  02:15        0.05
  j_90701              JUNCTION     0.01     0.04     0.54     0  02:15        0.04
  j_90702              JUNCTION     0.01     0.04     0.54     0  02:15        0.04
  j_90703              JUNCTION     0.14     0.68     0.20     0  02:19        0.67
  j_90704              JUNCTION     0.06     0.43     0.21     0  02:20        0.43
  j_90705              JUNCTION     0.07     1.18     0.92     0  02:16        0.46
  j_90706              JUNCTION     0.17     0.72     0.18     0  02:20        0.71
  j_90707              JUNCTION     0.11     0.56     0.18     0  02:20        0.56
  j_90708              JUNCTION     0.04     0.30     0.19     0  02:20        0.29
  j_90709              JUNCTION     0.06     0.57     0.37     0  02:14        0.40
  j_90710              JUNCTION     0.04     0.26     0.21     0  02:20        0.25
  j_90724              JUNCTION     0.14     0.46     0.20     0  02:20        0.46
  j_90725              JUNCTION     0.03     0.20     0.20     0  02:20        0.20
  j_90726              JUNCTION     0.02     0.15     0.20     0  02:20        0.15
  j_90727              JUNCTION     0.01     0.10     0.20     0  02:20        0.10
  j_90728              JUNCTION     0.02     0.14     0.20     0  02:20        0.14
  j_90729              JUNCTION     0.01     0.05     0.28     0  02:15        0.05
  j_90730              JUNCTION     0.05     0.28     0.20     0  02:20        0.28
  j_90731              JUNCTION     0.02     0.10     0.20     0  02:19        0.10
  j_90732              JUNCTION     0.01     0.06     0.21     0  02:19        0.05
  j_90733              JUNCTION     0.07     0.33     0.19     0  02:20        0.33
  j_91272              JUNCTION     0.00     0.00     0.17     0  00:00        0.00
  j_91273              JUNCTION     0.00     0.00     0.47     0  00:00        0.00
  j_91274              JUNCTION     0.00     0.00     0.23     0  00:00        0.00
  j_91275              JUNCTION     0.00     0.00     0.47     0  00:00        0.00
  j_91276              JUNCTION     0.00     0.00     0.28     0  00:00        0.00
  j_91277              JUNCTION     0.00     0.00     0.51     0  00:00        0.00
  j_91278              JUNCTION     0.00     0.00     0.35     0  00:00        0.00
  j_91279              JUNCTION     0.00     0.00     0.50     0  00:00        0.00
  j_91292              JUNCTION     0.00     0.04     0.03     0  02:21        0.02
  j_91293              JUNCTION     0.03     0.25     0.02     0  02:21        0.24
  j_91294              JUNCTION     0.00     0.00     0.31     0  00:00        0.00
  j_90552              OUTFALL      0.00     0.00    -1.29     0  00:00        0.00
  j_90431              OUTFALL      0.05     0.21    -1.40     0  02:21        0.20
  
  
  *******************
  Node Inflow Summary
  *******************
  
  -------------------------------------------------------------------------------------------------
                                  Maximum  Maximum                  Lateral       Total        Flow
                                  Lateral    Total  Time of Max      Inflow      Inflow     Balance
                                   Inflow   Inflow   Occurrence      Volume      Volume       Error
  Node                 Type           CMS      CMS  days hr:min    10^6 ltr    10^6 ltr     Percent
  -------------------------------------------------------------------------------------------------
  j_9006F              JUNCTION     0.005    0.008     0  02:13      0.0054     0.00586       0.000
  j_90334              JUNCTION     0.014    0.014     0  02:15      0.0185      0.0185       0.000
  j_90335              JUNCTION     0.023    0.023     0  02:15      0.0257      0.0257       0.000
  j_90336              JUNCTION     0.004    0.016     0  02:15      0.0047      0.0218       0.000
  j_90363              JUNCTION     0.025    0.025     0  02:15      0.0288      0.0288       0.000
  j_90364              JUNCTION     0.006    0.047     0  02:12     0.00847      0.0573       0.081
  j_90365              JUNCTION     0.001    0.002     0  02:11     0.00147     0.00164       2.712
  j_90366              JUNCTION     0.008    0.008     0  02:15     0.00984     0.00984       0.000
  j_90367              JUNCTION     0.008    0.060     0  02:12     0.00958      0.0769      -0.099
  j_90368              JUNCTION     0.000    0.002     0  02:11           0    0.000479       0.414
  j_90369              JUNCTION     0.019    0.019     0  02:15      0.0229      0.0229       0.000
  j_90370              JUNCTION     0.009    0.047     0  02:11     0.00994      0.0585      -0.209
  j_90371              JUNCTION     0.012    0.104     0  02:15      0.0129       0.172      -0.004
  j_90372              JUNCTION     0.004    0.004     0  02:15     0.00569     0.00569       0.000
  j_90373              JUNCTION     0.008    0.020     0  02:11     0.00879      0.0282      -0.189
  j_90374              JUNCTION     0.000    0.012     0  02:14           0     0.00445       0.000
  j_90375              JUNCTION     0.010    0.024     0  02:18      0.0113      0.0226       0.139
  j_90376              JUNCTION     0.002    0.006     0  02:15     0.00195     0.00719       0.000
  j_90377              JUNCTION     0.008    0.027     0  02:20      0.0095      0.0242      -0.262
  j_90378              JUNCTION     0.009    0.023     0  02:15      0.0106      0.0271       0.000
  j_90379              JUNCTION     0.013    0.013     0  02:15      0.0164      0.0164      -0.199
  j_90380              JUNCTION     0.015    0.015     0  02:15      0.0185      0.0185       0.000
  j_90381              JUNCTION     0.009    0.024     0  02:15      0.0111      0.0296       0.795
  j_90382              JUNCTION     0.011    0.221     0  02:14      0.0131       0.414      -0.032
  j_90383              JUNCTION     0.010    0.206     0  02:14      0.0111       0.371      -0.032
  j_90384              JUNCTION     0.005    0.027     0  02:13     0.00652      0.0319       0.589
  j_90385              JUNCTION     0.008    0.021     0  02:15     0.00882      0.0254       0.157
  j_90386              JUNCTION     0.013    0.013     0  02:15      0.0165      0.0165      -0.247
  j_90387              JUNCTION     0.009    0.009     0  02:15      0.0105      0.0105       0.000
  j_90388              JUNCTION     0.005    0.014     0  02:14     0.00643       0.017       1.448
  j_90389              JUNCTION     0.007    0.156     0  02:15     0.00862       0.263       0.000
  j_90390              JUNCTION     0.004    0.112     0  02:15      0.0048       0.192      -0.022
  j_90391              JUNCTION     0.005    0.043     0  02:15     0.00655      0.0624       0.195
  j_90392              JUNCTION     0.010    0.039     0  02:15      0.0129      0.0558       0.073
  j_90393              JUNCTION     0.017    0.031     0  02:15      0.0211      0.0429      -0.049
  j_90394              JUNCTION     0.005    0.013     0  02:15     0.00668      0.0171      -0.035
  j_90395              JUNCTION     0.007    0.009     0  02:14     0.00753      0.0104      -0.068
  j_90396              JUNCTION     0.003    0.003     0  02:11     0.00289     0.00289       0.302
  j_90397              JUNCTION     0.007    0.185     0  02:15     0.00921       0.329      -0.014
  j_90398              JUNCTION     0.008    0.042     0  02:12      0.0104      0.0587      -0.231
  j_90399              JUNCTION     0.009    0.017     0  02:20      0.0105      0.0157       1.071
  j_90400              JUNCTION     0.006    0.024     0  02:21     0.00672      0.0151       0.001
  j_90401              JUNCTION     0.009    0.026     0  02:21      0.0103      0.0224      -0.051
  j_90402              JUNCTION     0.009    0.022     0  02:19      0.0104      0.0195       0.000
  j_90403              JUNCTION     0.005    0.021     0  02:20      0.0063      0.0134      -0.091
  j_90404              JUNCTION     0.009    0.021     0  02:20      0.0103      0.0152       0.850
  j_90405              JUNCTION     0.009    0.030     0  02:12      0.0111      0.0392      -0.031
  j_90406              JUNCTION     0.008    0.026     0  02:13      0.0105      0.0314      -0.412
  j_90407              JUNCTION     0.007    0.017     0  02:20     0.00814      0.0122      -0.913
  j_90408              JUNCTION     0.018    0.018     0  02:15      0.0209      0.0215       0.935
  j_90427              JUNCTION     0.018    0.031     0  02:11      0.0221      0.0373       0.000
  j_90428              JUNCTION     0.010    0.034     0  02:20      0.0128      0.0282       0.085
  j_90430              JUNCTION     0.006    0.928     0  02:21     0.00658        1.71       0.005
  j_90433              JUNCTION     0.003    0.003     0  02:15     0.00347     0.00348       0.000
  j_90434              JUNCTION     0.007    0.031     0  02:20     0.00742      0.0308       1.482
  j_90435              JUNCTION     0.010    0.035     0  02:20      0.0117      0.0421       0.019
  j_90436              JUNCTION     0.006    0.067     0  02:15     0.00659      0.0818       0.000
  j_90437              JUNCTION     0.013    0.927     0  02:20       0.015         1.7       0.013
  j_90438              JUNCTION     0.010    0.837     0  02:20      0.0121        1.56       0.010
  j_90439              JUNCTION     0.006    0.055     0  02:20     0.00697      0.0496       0.000
  j_90440              JUNCTION     0.018    0.048     0  02:19      0.0215      0.0377      -0.027
  j_90441              JUNCTION     0.008    0.008     0  02:15      0.0104      0.0104      -0.048
  j_90442              JUNCTION     0.018    0.200     0  02:20      0.0244       0.363       0.040
  j_90443              JUNCTION     0.026    0.778     0  02:20      0.0327         1.5      -0.003
  j_90444              JUNCTION     0.010    0.263     0  02:15      0.0121       0.552      -0.008
  j_90445              JUNCTION     0.009    0.031     0  02:15      0.0111       0.038       0.254
  j_90446              JUNCTION     0.009    0.022     0  02:15      0.0106      0.0269       0.045
[...]
  c_906992                1.00   0.35  0.00  0.00  0.65  0.00  0.00  0.00  0.49  0.00
  c_907001                1.00   0.35  0.00  0.00  0.00  0.00  0.00  0.65  0.00  0.00
  c_907011                1.00   0.35  0.00  0.00  0.00  0.00  0.00  0.65  0.00  0.00
  c_907021                1.00   0.35  0.00  0.00  0.00  0.00  0.00  0.65  0.00  0.00
  c_907031                1.00   0.35  0.01  0.00  0.64  0.00  0.00  0.00  0.20  0.00
  c_907032                1.00   0.35  0.00  0.00  0.34  0.00  0.00  0.31  0.08  0.00
  c_907033                1.00   0.35  0.00  0.00  0.56  0.00  0.00  0.09  0.13  0.00
  c_907041                1.00   0.35  0.00  0.00  0.35  0.00  0.00  0.30  0.00  0.00
  c_907042                1.00   0.35  0.14  0.00  0.51  0.00  0.00  0.00  0.25  0.00
  c_907051                1.00   0.56  0.26  0.00  0.17  0.00  0.01  0.00  0.01  0.00
  c_907061                1.00   0.35  0.00  0.00  0.65  0.00  0.00  0.00  0.01  0.00
  c_907062                1.00   0.35  0.00  0.00  0.65  0.00  0.00  0.00  0.29  0.00
  c_907071                1.00   0.35  0.00  0.00  0.30  0.00  0.00  0.35  0.00  0.00
  c_907081                1.00   0.35  0.00  0.00  0.25  0.00  0.00  0.41  0.06  0.00
  c_907091                1.00   0.35  0.00  0.00  0.65  0.00  0.00  0.00  0.45  0.00
  c_907101                1.00   0.35  0.07  0.00  0.58  0.00  0.00  0.00  0.51  0.00
  c_907241                1.00   0.35  0.00  0.00  0.65  0.00  0.00  0.00  0.00  0.00
  c_907242                1.00   0.35  0.00  0.00  0.65  0.00  0.00  0.00  0.00  0.00
  c_907251                1.00   0.35  0.00  0.00  0.55  0.00  0.00  0.10  0.45  0.00
  c_907261                1.00   0.35  0.16  0.00  0.50  0.00  0.00  0.00  0.49  0.00
  c_907271                1.00   0.35  0.00  0.00  0.65  0.00  0.00  0.00  0.52  0.00
  c_907281                1.00   0.35  0.58  0.00  0.04  0.00  0.03  0.00  0.01  0.00
  c_907291                1.00   0.35  0.08  0.00  0.57  0.00  0.00  0.00  0.60  0.00
  c_907301                1.00   0.35  0.00  0.00  0.65  0.00  0.00  0.00  0.52  0.00
  c_907311                1.00   0.35  0.03  0.00  0.63  0.00  0.00  0.00  0.54  0.00
  c_907321                1.00   0.37  0.13  0.00  0.50  0.00  0.00  0.00  0.57  0.00
  c_907331                1.00   0.35  0.00  0.00  0.65  0.00  0.00  0.00  0.35  0.00
  c_907332                1.00   0.35  0.00  0.00  0.54  0.00  0.00  0.11  0.13  0.00
  c_912721                1.00   1.00  0.00  0.00  0.00  0.00  0.00  0.00  0.00  0.00
  c_912731                1.00   1.00  0.00  0.00  0.00  0.00  0.00  0.00  0.00  0.00
  c_912741                1.00   1.00  0.00  0.00  0.00  0.00  0.00  0.00  0.00  0.00
  c_912751                1.00   1.00  0.00  0.00  0.00  0.00  0.00  0.00  0.00  0.00
  c_912761                1.00   1.00  0.00  0.00  0.00  0.00  0.00  0.00  0.00  0.00
  c_912771                1.00   1.00  0.00  0.00  0.00  0.00  0.00  0.00  0.00  0.00
  c_912781                1.00   1.00  0.00  0.00  0.00  0.00  0.00  0.00  0.00  0.00
  c_912791                1.00   1.00  0.00  0.00  0.00  0.00  0.00  0.00  0.00  0.00
  c_912931                1.00   0.46  0.23  0.00  0.31  0.00  0.00  0.00  0.44  0.00
  c_912932                1.00   0.45  0.00  0.00  0.17  0.00  0.00  0.37  0.00  0.00
  c_912941                1.00   1.00  0.00  0.00  0.00  0.00  0.00  0.00  0.00  0.00
  
  
  *************************
  Conduit Surcharge Summary
  *************************
  
  ----------------------------------------------------------------------------
                                                           Hours        Hours 
                         --------- Hours Full --------   Above Full   Capacity
  Conduit                Both Ends  Upstream  Dnstream   Normal Flow   Limited
  ----------------------------------------------------------------------------
  c_903642                    0.22      0.22      0.22      0.45         0.01
  c_903651                    0.21      0.21      0.22      0.01         0.05
  c_903671                    0.01      0.01      0.19      0.01         0.01
  c_903672                    0.13      0.13      0.13      0.18         0.06
  c_903681                    0.08      0.08      0.13      0.01         0.01
  c_903701                    0.01      0.01      0.20      0.01         0.01
  c_903702                    0.09      0.09      0.20      0.01         0.01
  c_903711                    0.16      0.16      0.25      0.01         0.01
  c_903712                    0.19      0.19      0.22      0.01         0.01
  c_903731                    0.10      0.10      0.25      0.01         0.01
  c_903732                    0.01      0.01      0.23      0.01         0.01
  c_903751                    0.01      0.01      0.10      0.01         0.01
  c_903752                    0.01      0.01      0.14      0.01         0.01
  c_903831                    0.01      0.01      0.14      0.01         0.01
  c_903902                    0.01      0.01      0.03      0.01         0.01
  c_903911                    0.01      0.01      0.01      0.04         0.01
  c_903972                    0.01      0.01      0.23      0.01         0.01
  c_903981                    0.24      0.24      0.39      0.01         0.01
  c_904051                    0.15      0.15      0.24      0.01         0.01
  c_904062                    0.03      0.03      0.15      0.01         0.01
  c_904071                    0.01      0.01      0.03      0.01         0.01
  c_904281                    0.11      0.11      0.16      0.01         0.01
  c_904341                    0.01      0.01      0.11      0.01         0.01
  c_904381                    0.01      0.01      0.01      0.40         0.01
  c_904401                    0.01      0.01      0.02      0.01         0.01
  c_904421                    0.01      0.01      0.09      0.67         0.01
  c_904441                    0.24      0.24      0.37      0.01         0.01
  c_904512                    0.19      0.19      0.24      0.01         0.01
  c_904531                    0.17      0.17      0.17      0.03         0.01
  c_904532                    0.17      0.17      0.19      0.01         0.01
  c_904571                    0.01      0.01      0.01      0.27         0.01
  c_904592                    0.01      0.01      0.15      0.39         0.01
  c_904611                    0.21      0.21      0.23      0.01         0.01
  c_904612                    0.01      0.01      0.16      0.11         0.01
  c_904621                    0.04      0.08      0.04      0.25         0.04
  c_904641                    0.15      0.15      0.25      0.01         0.01
  c_904651                    0.05      0.05      0.15      0.01         0.01
  c_904661                    0.01      0.01      0.05      0.01         0.01
  c_904681                    0.01      0.01      0.09      0.01         0.01
  c_904691                    0.09      0.09      0.12      0.04         0.01
  c_904701                    0.13      0.13      0.24      0.01         0.01
  c_904711                    0.04      0.04      0.09      0.01         0.01
  c_904791                    0.05      0.05      0.19      0.01         0.01
  c_904801                    0.01      0.01      0.05      0.01         0.01
  c_904811                    0.01      0.01      0.07      0.01         0.01
  c_904821                    0.19      0.19      0.24      0.01         0.01
  c_904822                    0.18      0.18      0.24      0.01         0.01
  c_904831                    0.03      0.03      0.17      0.01         0.01
  c_904851                    0.01      0.01      0.05      0.01         0.01
  c_904861                    0.23      0.23      0.29      0.01         0.01
  c_904862                    0.04      0.04      0.18      0.01         0.01
  c_904871                    0.23      0.23      0.35      0.01         0.01
  c_904881                    0.35      0.35      0.43      0.01         0.01
  c_904882                    0.09      0.14      0.09      0.19         0.09
  c_904921                    0.40      0.40      0.44      0.09         0.09
  c_904922                    0.01      0.01      0.29      0.01         0.01
  c_904931                    0.01      0.01      0.06      0.01         0.01
  c_904951                    0.57      0.57      0.60      0.01         0.01
  c_904952                    0.73      0.73      0.74      0.01         0.01
  c_904961                    0.01      0.01      0.28      0.01         0.01
  c_904971                    0.01      0.01      0.01      0.01         0.01
  c_904981                    0.01      0.01      0.05      0.01         0.01
  c_904982                    0.01      0.01      0.14      0.01         0.01
  c_904991                    0.24      0.24      0.24      0.28         0.19
  c_905001                    0.09      0.09      0.24      0.01         0.01
  c_905011                    0.01      0.01      0.06      0.01         0.01
  c_905051                    0.34      0.34      0.50      0.01         0.01
  c_905061                    0.34      0.34      0.37      0.08         0.01
  c_905071                    0.14      0.14      0.37      0.01         0.01
  c_905072                    0.01      0.01      0.14      0.01         0.01
  c_905081                    0.27      0.27      0.33      0.01         0.01
  c_905091                    0.01      0.01      0.19      0.01         0.01
  c_905101                    0.01      0.01      0.05      0.01         0.01
  c_905111                    0.05      0.05      0.26      0.01         0.01
  c_905121                    0.45      0.45      0.50      0.01         0.01
  c_905131                    0.01      0.01      0.32      0.01         0.01
  c_905141                    0.01      0.01      0.06      0.01         0.01
  c_905152                    0.01      0.01      0.01      0.01         0.01
  c_905161                    0.01      0.05      0.01      0.32         0.01
  c_905171                    0.25      0.25      0.31      0.01         0.01
  c_905172                    0.08      0.09      0.08      0.13         0.08
  c_905182                    0.21      0.21      0.26      0.32         0.01
  c_905191                    0.09      0.09      0.18      0.01         0.01
  c_905192                    0.24      0.24      0.26      0.01         0.01
  c_905241                    0.34      0.34      0.47      0.01         0.01
  c_905251                    0.21      0.21      0.34      0.01         0.01
  c_905261                    0.03      0.03      0.21      0.01         0.01
  c_905271                    0.01      0.01      0.03      0.01         0.01
  c_905521                    0.01      0.01      0.01      0.47         0.01
  c_905541                    0.06      0.06      0.16      0.01         0.01
  c_905551                    0.01      0.01      0.03      0.01         0.01
  c_905561                    0.15      0.15      0.16      0.01         0.01
  c_905571                    0.14      0.15      0.15      0.55         0.02
  c_905572                    0.10      0.10      0.16      0.01         0.01
  c_905581                    0.11      0.11      0.36      0.01         0.01
  c_905591                    0.20      0.20      0.41      0.01         0.01
  c_905601                    0.41      0.41      0.44      0.01         0.01
  c_905602                    0.05      0.05      0.41      0.01         0.01
  c_905611                    0.15      0.15      0.19      0.01         0.01
  c_905621                    0.15      0.15      0.24      0.01         0.01
  c_905622                    0.05      0.05      0.24      0.01         0.01
  c_905631                    0.21      0.21      0.29      0.01         0.01
  c_905632                    0.37      0.37      0.39      1.25         0.01
  c_905641                    0.12      0.12      0.23      0.01         0.01
  c_905651                    0.03      0.03      0.25      0.01         0.01
  c_905691                    0.01      0.01      0.02      0.01         0.01
  c_905711                    0.01      0.01      0.15      0.01         0.01
  c_905721                    0.30      0.30      0.32      0.06         0.07
  c_905722                    0.16      0.16      0.37      0.01         0.01
  c_905731                    0.01      0.01      0.01      0.06         0.01
  c_905732                    0.02      0.02      0.28      0.01         0.01
  c_905741                    0.74      0.74      0.80      0.01         0.01
  c_905751                    0.77      0.77      0.97      0.01         0.01
  c_905752                    0.37      0.37      0.43      0.06         0.05
  c_905761                    0.01      0.01      0.01      0.17         0.01
  c_905781                    0.34      0.34      0.40      0.01         0.01
  c_905791                    0.22      0.22      0.34      0.01         0.01
  c_905821                    0.01      0.01      0.01      0.32         0.01
  c_905841                    0.01      0.01      0.04      0.01         0.01
  c_905851                    0.32      0.32      0.41      0.01         0.01
  c_905852                    0.01      0.01      0.30      0.01         0.01
  c_905861                    0.30      0.34      0.30      1.35         0.30
  c_905862                    0.04      0.04      0.25      0.01         0.01
  c_905871                    0.31      0.31      0.34      0.01         0.01
  c_905881                    0.11      0.11      0.40      0.01         0.01
  c_905891                    0.01      0.01      0.11      0.01         0.01
  c_905901                    0.01      0.01      0.27      0.01         0.01
  c_905921                    0.57      0.57      0.64      0.01         0.01
  c_905931                    0.31      0.32      0.31      1.26         0.31
  c_905941                    0.18      0.18      0.32      0.01         0.01
  c_905942                    0.60      0.60      0.64      0.52         0.01
  c_905951                    0.10      0.10      0.29      0.01         0.01
  c_905961                    0.06      0.06      0.29      0.01         0.01
  c_905971                    0.02      0.02      0.10      0.01         0.01
  c_905981                    0.01      0.01      0.06      0.01         0.01
  c_905982                    0.01      0.01      0.02      0.01         0.01
  c_905991                    0.02      0.02      0.03      0.01         0.01
  c_906001                    0.01      0.01      0.02      0.01         0.01
  c_906031                    0.05      0.05      0.06      0.01         0.01
  c_906041                    0.05      0.05      0.17      0.01         0.01
  c_906051                    0.15      0.15      0.30      0.01         0.01
  c_906052                    0.07      0.07      0.20      0.01         0.01
  c_906061                    0.22      0.22      0.30      0.01         0.01
  c_906071                    0.19      0.19      0.27      0.01         0.01
  c_906081                    0.15      0.15      0.19      0.01         0.01
  c_906082                    0.08      0.08      0.15      0.01         0.01
  c_906091                    0.01      0.01      0.05      0.01         0.01
  c_906101                    0.01      0.01      0.01      0.01         0.01
  c_906111                    0.05      0.05      0.21      0.01         0.01
  c_906112                    0.01      0.01      0.03      0.01         0.01
  c_906121                    0.01      0.01      0.05      0.01         0.01
  c_906192                    0.01      0.01      0.01      0.02         0.01
  c_906201                    0.10      0.10      0.13      1.15         0.01
  c_906211                    0.15      0.15      0.23      0.01         0.01
  c_906231                    0.01      0.01      0.15      0.01         0.01
  c_906241                    0.62      0.62      0.75      0.01         0.01
  c_906261                    0.52      0.52      0.70      0.01         0.01
  c_906271                    0.70      0.70      0.72      0.01         0.01
  c_906272                    0.01      0.01      0.01      0.19         0.01
  c_906281                    0.01      0.01      0.22      0.01         0.01
  c_906322                    0.09      0.10      0.09      0.54         0.08
  c_906331                    0.13      0.13      0.18      0.01         0.01
  c_906341                    0.18      0.18      0.37      0.01         0.01
  c_906351                    0.45      0.45      0.52      0.01         0.01
  c_906352                    0.53      0.53      0.54      0.01         0.01
  c_906361                    0.27      0.27      0.50      0.01         0.01
  c_906371                    0.01      0.01      0.09      0.01         0.01
  c_906381                    0.18      0.18      0.29      0.01         0.01
  c_906391                    0.01      0.01      0.20      0.01         0.01
  c_906411                    0.13      0.13      0.22      0.01         0.01
  c_906421                    0.01      0.01      0.13      0.01         0.01
  c_906481                    0.01      0.01      0.05      0.01         0.01
  c_906511                    0.11      0.11      0.32      0.01         0.01
  c_906521                    0.07      0.07      0.11      0.01         0.01
  c_906531                    0.01      0.01      0.07      0.01         0.01
  c_906561                    0.01      0.01      0.01      0.39         0.01
  c_906563                    0.01      0.01      0.24      0.01         0.01
  c_906631                    0.20      0.21      0.20      0.29         0.14
  c_906651                    0.90      0.90      0.90      0.07         0.10
  c_906731                    0.60      0.60      0.60      0.29         0.20
  c_906741                    0.01      0.01      0.01      0.70         0.01
  c_906771                    0.01      0.01      0.10      0.01         0.01
  c_906772                    0.04      0.04      0.10      0.01         0.01
  c_906781                    0.03      0.03      0.54      0.01         0.01
  c_906791                    0.01      0.01      0.03      0.01         0.01
  c_906821                    0.01      0.01      0.50      0.01         0.01
  c_906841                    0.48      0.48      0.49      0.01         0.01
  c_907031                    0.26      0.26      0.29      0.01         0.01
  c_907032                    0.20      0.20      0.39      0.01         0.01
  c_907033                    0.29      0.29      0.36      0.01         0.01
  c_907041                    0.01      0.01      0.01      0.01         0.01
  c_907051                    0.01      0.01      0.17      0.01         0.01
  c_907061                    0.46      0.46      0.55      0.01         0.01
  c_907062                    0.46      0.46      0.57      0.01         0.01
  c_907071                    0.29      0.29      0.30      0.01         0.01
  c_907081                    0.01      0.01      0.24      0.01         0.01
  c_907091                    0.19      0.19      0.45      0.01         0.01
  c_907101                    0.01      0.01      0.19      0.01         0.01
  c_907241                    0.01      0.01      0.04      0.01         0.01
  c_907242                    0.04      0.04      0.04      0.09         0.01
  c_907251                    0.01      0.01      0.26      0.01         0.01
  c_907331                    0.01      0.01      0.18      0.01         0.01
  c_907332                    0.18      0.18      0.26      0.01         0.01
  c_912931                    0.01      0.01      0.05      0.01         0.01
  c_912932                    0.05      0.05      0.07      0.01         0.01
  

  Analysis begun on:  Sun Jun 12 01:37:14 2022
  Analysis ended on:  Sun Jun 12 01:37:25 2022
  Total elapsed time: 00:00:11