
  EPA STORM WATER MANAGEMENT MODEL - VERSION 5.1 (Build 5.1.015)
  --------------------------------------------------------------

  WARNING 04: minimum elevation drop used for Conduit c_903642
  WARNING 04: minimum elevation drop used for Conduit c_903651
  WARNING 04: minimum elevation drop used for Conduit c_903672
  WARNING 04: minimum elevation drop used for Conduit c_905571
  WARNING 04: minimum elevation drop used for Conduit c_905632
  WARNING 04: minimum elevation drop used for Conduit c_905821
  WARNING 04: minimum elevation drop used for Conduit c_905861
  WARNING 04: minimum elevation drop used for Conduit c_905931
  WARNING 04: minimum elevation drop used for Conduit c_906201
  WARNING 04: minimum elevation drop used for Conduit c_906322
  WARNING 04: minimum elevation drop used for Conduit c_906631
  WARNING 04: minimum elevation drop used for Conduit c_906641
  WARNING 04: minimum elevation drop used for Conduit c_906651
  WARNING 04: minimum elevation drop used for Conduit c_906731
  WARNING 04: minimum elevation drop used for Conduit c_906741
  WARNING 04: minimum elevation drop used for Conduit c_907242
  
  *********************
  Rainfall File Summary
  *********************
  Station    First        Last         Recording   Periods    Periods    Periods
  ID         Date         Date         Frequency  w/Precip    Missing    Malfunc.
  -------------------------------------------------------------------------------
  R1         01/03/2014   01/03/2014       5 min       209          0          0
  R1         01/03/2014   01/03/2014       5 min       209          0          0
  R1         01/03/2014   01/03/2014       5 min       209          0          0

  
  *********************************************************
  NOTE: The summary statistics displayed in this report are
  based on results found at every computational time step,  
  not just on results from each reporting time step.
  *********************************************************
  
  ****************
  Analysis Options
  ****************
  Flow Units ............... CMS
  Process Models:
    Rainfall/Runoff ........ YES
    RDII ................... NO
    Snowmelt ............... NO
    Groundwater ............ NO
    Flow Routing ........... YES
    Ponding Allowed ........ NO
    Water Quality .......... NO
  Infiltration Method ...... HORTON
  Flow Routing Method ...... DYNWAVE
  Surcharge Method ......... EXTRAN
  Starting Date ............ 01/03/2014 00:00:00
  Ending Date .............. 01/03/2014 22:55:00
  Antecedent Dry Days ...... 0.0
  Report Time Step ......... 00:05:00
  Wet Time Step ............ 00:01:00
  Dry Time Step ............ 00:10:00
  Routing Time Step ........ 1.00 sec
  Variable Time Step ....... YES
  Maximum Trials ........... 12
  Number of Threads ........ 2
  Head Tolerance ........... 0.000200 m
  
  
  **************************        Volume         Depth
  Runoff Quantity Continuity     hectare-m            mm
  **************************     ---------       -------
  Total Precipitation ......         2.176        78.417
  Evaporation Loss .........         0.017         0.623
  Infiltration Loss ........         0.034         1.234
  Surface Runoff ...........         2.035        73.338
  Final Storage ............         0.100         3.586
  Continuity Error (%) .....        -0.464
  
  
  **************************        Volume        Volume
  Flow Routing Continuity        hectare-m      10^6 ltr
  **************************     ---------     ---------
  Dry Weather Inflow .......         0.000         0.000
  Wet Weather Inflow .......         2.035        20.351
  Groundwater Inflow .......         0.000         0.000
  RDII Inflow ..............         0.000         0.000
  External Inflow ..........         0.000         0.000
  External Outflow .........         1.817        18.171
  Flooding Loss ............         0.221         2.209
  Evaporation Loss .........         0.000         0.000
  Exfiltration Loss ........         0.000         0.000
  Initial Stored Volume ....         0.000         0.000
  Final Stored Volume ......         0.001         0.006
  Continuity Error (%) .....        -0.168
  
  
  *************************
  Highest Continuity Errors
  *************************
  Node j_91293 (3.64%)
  Node j_90694 (-1.07%)
  
  
  ***************************
  Time-Step Critical Elements
  ***************************
  Link c_904312 (15.50%)
  
  
  ********************************
  Highest Flow Instability Indexes
  ********************************
  Link c_912931 (3)
  Link c_906651 (2)
  Link c_912791 (2)
  Link c_912721 (2)
  Link c_912771 (2)
  
  
  *************************
  Routing Time Step Summary
  *************************
  Minimum Time Step           :     0.50 sec
  Average Time Step           :     0.93 sec
  Maximum Time Step           :     1.00 sec
  Percent in Steady State     :     0.36
  Average Iterations per Step :     3.02
  Percent Not Converging      :     9.08
  Time Step Frequencies       :
      1.000 -  0.871 sec      :    84.19 %
      0.871 -  0.758 sec      :     0.31 %
      0.758 -  0.660 sec      :     0.69 %
      0.660 -  0.574 sec      :     3.00 %
      0.574 -  0.500 sec      :    11.81 %
  
  
  ***************************
  Subcatchment Runoff Summary
  ***************************
  
  ------------------------------------------------------------------------------------------------------------------------------
                            Total      Total      Total      Total     Imperv       Perv      Total       Total     Peak  Runoff
                           Precip      Runon       Evap      Infil     Runoff     Runoff     Runoff      Runoff   Runoff   Coeff
  Subcatchment                 mm         mm         mm         mm         mm         mm         mm    10^6 ltr      CMS
  ------------------------------------------------------------------------------------------------------------------------------
  sub_9006F                 78.42       0.00       0.64       1.02      48.06      25.07      73.12        0.03     0.01   0.933
  sub_90334                 78.42       0.00       0.51       2.70       8.70      66.12      74.82        0.09     0.03   0.954
  sub_90335                 78.42       0.00       0.67       0.62      57.52      15.20      72.72        0.14     0.05   0.927
  sub_90336                 78.42       0.00       0.56       2.08      23.25      50.94      74.20        0.02     0.01   0.946
  sub_90363                 78.42       0.00       0.67       0.63      57.40      15.32      72.72        0.16     0.05   0.927
  sub_90364                 78.42       0.00       0.54       2.29      18.35      56.06      74.41        0.04     0.01   0.949
  sub_90365                 78.42       0.00       0.48       3.07       0.00      75.20      75.20        0.01     0.00   0.959
  sub_90366                 78.42       0.00       0.64       1.04      47.72      25.42      73.14        0.05     0.02   0.933
  sub_90367                 78.42       0.00       0.58       1.75      31.05      42.81      73.86        0.05     0.02   0.942
  sub_90369                 78.42       0.00       0.62       1.25      42.72      30.64      73.36        0.12     0.04   0.935
  sub_90370                 78.42       0.00       0.65       0.84      52.34      20.60      72.94        0.05     0.02   0.930
  sub_90371                 78.42       0.00       0.69       0.44      61.79      10.74      72.53        0.07     0.02   0.925
  sub_90372                 78.42       0.00       0.57       1.94      26.56      47.49      74.05        0.03     0.01   0.944
  sub_90373                 78.42       0.00       0.71       0.13      68.95       3.27      72.22        0.05     0.02   0.921
  sub_90375                 78.42       0.00       0.67       0.61      57.67      15.04      72.71        0.06     0.02   0.927
  sub_90376                 78.42       0.00       0.63       1.10      46.34      26.86      73.20        0.01     0.00   0.933
  sub_90377                 78.42       0.00       0.67       0.65      56.86      15.89      72.75        0.05     0.02   0.928
  sub_90378                 78.42       0.00       0.65       0.87      51.76      21.21      72.97        0.06     0.02   0.930
  sub_90379                 78.42       0.00       0.61       1.46      37.94      35.62      73.56        0.08     0.03   0.938
  sub_90380                 78.42       0.00       0.62       1.32      41.03      32.39      73.43        0.10     0.03   0.936
  sub_90381                 78.42       0.00       0.61       1.34      40.66      32.78      73.44        0.06     0.02   0.937
  sub_90382                 78.42       0.00       0.63       1.11      46.01      27.20      73.21        0.07     0.02   0.934
  sub_90383                 78.42       0.00       0.65       0.95      49.84      23.21      73.05        0.06     0.02   0.932
  sub_90384                 78.42       0.00       0.58       1.82      29.49      44.44      73.93        0.03     0.01   0.943
  sub_90385                 78.42       0.00       0.66       0.80      53.23      19.67      72.90        0.05     0.02   0.930
  sub_90386                 78.42       0.00       0.60       1.47      37.61      35.96      73.58        0.08     0.03   0.938
  sub_90387                 78.42       0.00       0.63       1.15      45.18      28.07      73.25        0.05     0.02   0.934
  sub_90388                 78.42       0.00       0.63       1.14      45.45      27.79      73.24        0.03     0.01   0.934
  sub_90389                 78.42       0.00       0.62       1.26      42.54      30.82      73.36        0.04     0.02   0.936
  sub_90390                 78.42       0.00       0.60       1.58      34.95      38.74      73.69        0.02     0.01   0.940
  sub_90391                 78.42       0.00       0.48       3.07       0.00      75.20      75.20        0.03     0.01   0.959
  sub_90392                 78.42       0.00       0.57       1.96      25.99      48.09      74.08        0.06     0.02   0.945
  sub_90393                 78.42       0.00       0.57       1.94      26.59      47.47      74.05        0.10     0.04   0.944
  sub_90394                 78.42       0.00       0.57       1.84      28.84      45.12      73.95        0.03     0.01   0.943
  sub_90395                 78.42       0.00       0.66       0.71      55.35      17.46      72.81        0.04     0.01   0.929
  sub_90396                 78.42       0.00       0.72       0.00      72.09       0.00      72.09        0.02     0.01   0.919
  sub_90397                 78.42       0.00       0.59       1.66      33.18      40.58      73.77        0.05     0.02   0.941
  sub_90398                 78.42       0.00       0.58       1.73      31.48      42.37      73.84        0.05     0.02   0.942
  sub_90399                 78.42       0.00       0.64       0.97      49.32      23.75      73.07        0.06     0.02   0.932
  sub_90400                 78.42       0.00       0.63       1.15      45.06      28.20      73.25        0.04     0.01   0.934
  sub_90401                 78.42       0.00       0.67       0.68      56.17      16.60      72.77        0.06     0.02   0.928
  sub_90402                 78.42       0.00       0.66       0.72      55.24      17.58      72.82        0.06     0.02   0.929
  sub_90403                 78.42       0.00       0.63       1.16      44.85      28.41      73.26        0.03     0.01   0.934
  sub_90404                 78.42       0.00       0.62       1.22      43.45      29.87      73.32        0.05     0.02   0.935
  sub_90405                 78.42       0.00       0.61       1.34      40.66      32.78      73.44        0.06     0.02   0.937
  sub_90406                 78.42       0.00       0.59       1.62      34.04      39.69      73.73        0.05     0.02   0.940
  sub_90407                 78.42       0.00       0.59       1.59      34.76      38.94      73.70        0.04     0.01   0.940
  sub_90408                 78.42       0.00       0.64       1.02      48.22      24.90      73.12        0.11     0.04   0.932
  sub_90427                 78.42       0.00       0.63       1.19      44.08      29.22      73.30        0.12     0.04   0.935
  sub_90428                 78.42       0.00       0.61       1.45      38.07      35.49      73.56        0.07     0.02   0.938
  sub_90430                 78.42       0.00       0.67       0.69      55.91      16.88      72.79        0.04     0.01   0.928
  sub_90431                 78.42       0.00       0.63       1.11      45.97      27.25      73.22        0.05     0.02   0.934
  sub_90433                 78.42       0.00       0.60       1.54      36.04      37.60      73.64        0.02     0.01   0.939
  sub_90434                 78.42       0.00       0.68       0.55      59.22      13.43      72.64        0.04     0.01   0.926
  sub_90435                 78.42       0.00       0.64       0.98      49.19      23.89      73.08        0.06     0.02   0.932
  sub_90436                 78.42       0.00       0.68       0.49      60.55      12.03      72.59        0.04     0.01   0.926
  sub_90437                 78.42       0.00       0.66       0.77      53.90      18.97      72.87        0.08     0.03   0.929
  sub_90438                 78.42       0.00       0.63       1.09      46.40      26.79      73.20        0.06     0.02   0.933
  sub_90439                 78.42       0.00       0.63       1.11      46.14      27.07      73.21        0.04     0.01   0.934
  sub_90440                 78.42       0.00       0.62       1.25      42.68      30.67      73.36        0.11     0.04   0.935
  sub_90441                 78.42       0.00       0.56       2.05      24.03      50.13      74.16        0.05     0.02   0.946
  sub_90442                 78.42       0.00       0.53       2.41      15.61      58.91      74.52        0.12     0.04   0.950
  sub_90443                 78.42       0.00       0.58       1.79      30.01      43.89      73.90        0.16     0.06   0.942
  sub_90444                 78.42       0.00       0.65       0.86      51.84      21.12      72.96        0.06     0.02   0.930
  sub_90445                 78.42       0.00       0.60       1.52      36.51      37.11      73.62        0.06     0.02   0.939
  sub_90446                 78.42       0.00       0.65       0.92      50.56      22.46      73.02        0.06     0.02   0.931
  sub_90447                 78.42       0.00       0.61       1.43      38.57      34.96      73.53        0.08     0.03   0.938
  sub_90448                 78.42       0.00       0.62       1.33      40.95      32.49      73.43        0.09     0.03   0.936
  sub_90449                 78.42       0.00       0.62       1.25      42.72      30.64      73.36        0.04     0.01   0.935
  sub_90450                 78.42       0.00       0.64       1.06      47.23      25.93      73.16        0.02     0.01   0.933
  sub_90451                 78.42       0.00       0.61       1.35      40.50      32.95      73.45        0.07     0.02   0.937
  sub_90452                 78.42       0.00       0.58       1.73      31.54      42.30      73.84        0.04     0.01   0.942
  sub_90453                 78.42       0.00       0.65       0.89      51.24      21.74      72.99        0.06     0.02   0.931
  sub_90454                 78.42       0.00       0.63       1.20      44.01      29.29      73.30        0.07     0.02   0.935
  sub_90455                 78.42       0.00       0.67       0.66      56.64      16.11      72.75        0.06     0.02   0.928
  sub_90456                 78.42       0.00       0.58       1.78      30.28      43.62      73.89        0.11     0.04   0.942
  sub_90457                 78.42       0.00       0.58       1.75      30.96      42.90      73.86        0.12     0.04   0.942
  sub_90459                 78.42       0.00       0.55       2.13      22.18      52.06      74.24        0.14     0.05   0.947
  sub_90460                 78.42       0.00       0.49       2.85       5.21      69.76      74.97        0.06     0.02   0.956
  sub_90461                 78.42       0.00       0.64       1.02      48.06      25.07      73.12        0.03     0.01   0.933
  sub_90462                 78.42       0.00       0.61       1.44      38.22      35.33      73.55        0.06     0.02   0.938
  sub_90463                 78.42       0.00       0.66       0.74      54.69      18.15      72.84        0.06     0.02   0.929
  sub_90464                 78.42       0.00       0.62       1.23      43.11      30.23      73.34        0.07     0.03   0.935
  sub_90465                 78.42       0.00       0.67       0.66      56.64      16.11      72.75        0.06     0.02   0.928
  sub_90466                 78.42       0.00       0.63       1.15      45.06      28.20      73.25        0.07     0.02   0.934
  sub_90467                 78.42       0.00       0.68       0.56      58.86      13.80      72.66        0.11     0.04   0.927
  sub_90468                 78.42       0.00       0.63       1.09      46.47      26.72      73.19        0.09     0.03   0.933
  sub_90469                 78.42       0.00       0.67       0.66      56.64      16.11      72.75        0.06     0.02   0.928
  sub_90470                 78.42       0.00       0.63       1.13      45.57      27.67      73.23        0.08     0.03   0.934
  sub_90471                 78.42       0.00       0.65       0.94      50.12      22.92      73.04        0.08     0.03   0.931
  sub_90477                 78.42       0.00       0.67       0.64      57.07      15.67      72.74        0.10     0.04   0.928
  sub_90478                 78.42       0.00       0.66       0.74      54.69      18.15      72.84        0.06     0.02   0.929
  sub_90479                 78.42       0.00       0.58       1.76      30.76      43.11      73.87        0.06     0.02   0.942
  sub_90480                 78.42       0.00       0.65       0.87      51.74      21.23      72.97        0.09     0.03   0.930
  sub_90481                 78.42       0.00       0.63       1.10      46.29      26.91      73.20        0.07     0.02   0.933
  sub_90482                 78.42       0.00       0.63       1.15      45.21      28.04      73.25        0.04     0.01   0.934
  sub_90483                 78.42       0.00       0.54       2.30      18.02      56.40      74.42        0.08     0.03   0.949
  sub_90484                 78.42       0.00       0.65       0.96      49.56      23.50      73.06        0.07     0.02   0.932
  sub_90485                 78.42       0.00       0.58       1.73      31.48      42.37      73.84        0.10     0.04   0.942
  sub_90486                 78.42       0.00       0.62       1.28      41.96      31.43      73.39        0.10     0.03   0.936
  sub_90487                 78.42       0.00       0.63       1.10      46.29      26.91      73.20        0.14     0.05   0.933
  sub_90488                 78.42       0.00       0.61       1.34      40.58      32.86      73.45        0.10     0.03   0.937
  sub_90489                 78.42       0.00       0.67       0.68      56.16      16.61      72.78        0.06     0.02   0.928
  sub_90490                 78.42       0.00       0.67       0.61      57.83      14.87      72.70        0.07     0.02   0.927
  sub_90491                 78.42       0.00       0.66       0.72      55.29      17.52      72.81        0.07     0.03   0.929
  sub_90492                 78.42       0.00       0.64       0.96      49.48      23.58      73.06        0.09     0.03   0.932
  sub_90493                 78.42       0.00       0.67       0.66      56.70      16.05      72.75        0.06     0.02   0.928
  sub_90494                 78.42       0.00       0.67       0.63      57.36      15.36      72.72        0.07     0.02   0.927
  sub_90495                 78.42       0.00       0.64       0.98      49.02      24.06      73.08        0.07     0.02   0.932
  sub_90496                 78.42       0.00       0.67       0.66      56.70      16.05      72.75        0.06     0.02   0.928
  sub_90497                 78.42       0.00       0.67       0.59      58.28      14.40      72.68        0.07     0.02   0.927
  sub_90498                 78.42       0.00       0.63       1.11      46.12      27.09      73.21        0.12     0.04   0.934
  sub_90499                 78.42       0.00       0.57       1.93      26.84      47.21      74.04        0.10     0.03   0.944
  sub_90500                 78.42       0.00       0.61       1.41      38.90      34.62      73.52        0.09     0.03   0.938
  sub_90501                 78.42       0.00       0.67       0.62      57.52      15.19      72.72        0.07     0.02   0.927
  sub_90502                 78.42       0.00       0.62       1.22      43.54      29.78      73.32        0.07     0.03   0.935
  sub_90503                 78.42       0.00       0.67       0.68      56.07      16.71      72.78        0.05     0.02   0.928
  sub_90504                 78.42       0.00       0.67       0.63      57.20      15.53      72.73        0.07     0.02   0.927
  sub_90505                 78.42       0.00       0.66       0.74      54.63      18.21      72.84        0.07     0.02   0.929
  sub_90506                 78.42       0.00       0.66       0.81      53.03      19.88      72.91        0.06     0.02   0.930
  sub_90507                 78.42       0.00       0.65       0.85      52.15      20.80      72.95        0.07     0.02   0.930
  sub_90508                 78.42       0.00       0.66       0.82      52.75      20.18      72.92        0.06     0.02   0.930
  sub_90509                 78.42       0.00       0.59       1.70      32.15      41.66      73.81        0.05     0.02   0.941
  sub_90510                 78.42       0.00       0.66       0.77      54.07      18.80      72.87        0.06     0.02   0.929
  sub_90511                 78.42       0.00       0.62       1.32      41.19      32.23      73.42        0.04     0.01   0.936
  sub_90512                 78.42       0.00       0.65       0.87      51.59      21.38      72.97        0.07     0.03   0.931
  sub_90513                 78.42       0.00       0.67       0.60      58.06      14.63      72.69        0.13     0.05   0.927
  sub_90514                 78.42       0.00       0.66       0.79      53.44      19.45      72.89        0.08     0.03   0.930
  sub_90515                 78.42       0.00       0.61       1.39      39.38      34.12      73.50        0.08     0.03   0.937
  sub_90516                 78.42       0.00       0.57       1.95      26.40      47.66      74.06        0.05     0.02   0.944
  sub_90517                 78.42       0.00       0.61       1.41      39.05      34.47      73.51        0.05     0.02   0.937
  sub_90518                 78.42       0.00       0.69       0.42      62.19      10.32      72.52        0.04     0.01   0.925
  sub_90519                 78.42       0.00       0.60       1.57      35.36      38.32      73.67        0.15     0.05   0.940
  sub_90520                 78.42       0.00       0.60       1.52      36.34      37.29      73.63        0.09     0.03   0.939
  sub_90521                 78.42       0.00       0.65       0.90      51.02      21.98      73.00        0.05     0.02   0.931
  sub_90522                 78.42       0.00       0.66       0.72      55.22      17.60      72.82        0.03     0.01   0.929
  sub_90523                 78.42       0.00       0.65       0.89      51.16      21.83      72.99        0.09     0.03   0.931
  sub_90524                 78.42       0.00       0.60       1.50      36.90      36.70      73.61        0.12     0.04   0.939
  sub_90525                 78.42       0.00       0.57       1.89      27.77      46.23      74.00        0.18     0.06   0.944
  sub_90526                 78.42       0.00       0.60       1.52      36.50      37.12      73.62        0.06     0.02   0.939
  sub_90527                 78.42       0.00       0.57       1.96      26.14      47.93      74.07        0.07     0.02   0.945
  sub_90549                 78.42       0.00       0.61       1.42      38.73      34.79      73.53        0.05     0.02   0.938
  sub_90550                 78.42       0.00       0.72       0.00      72.09       0.00      72.09        0.03     0.01   0.919
  sub_90551                 78.42       0.00       0.59       1.66      33.09      40.68      73.77        0.05     0.02   0.941
  sub_90552                 78.42       0.00       0.67       0.68      56.12      16.65      72.78        0.22     0.07   0.928
  sub_90553                 78.42       0.00       0.59       1.59      34.71      38.99      73.70        0.04     0.01   0.940
  sub_90554                 78.42       0.00       0.60       1.52      36.51      37.11      73.62        0.06     0.02   0.939
  sub_90555                 78.42       0.00       0.57       1.85      28.66      45.30      73.96        0.06     0.02   0.943
  sub_90556                 78.42       0.00       0.56       2.03      24.51      49.63      74.14        0.11     0.04   0.945
  sub_90557                 78.42       0.00       0.64       1.04      47.59      25.55      73.15        0.08     0.03   0.933
  sub_90558                 78.42       0.00       0.64       1.05      47.35      25.81      73.16        0.12     0.04   0.933
  sub_90559                 78.42       0.00       0.59       1.65      33.27      40.49      73.76        0.08     0.03   0.941
  sub_90560                 78.42       0.00       0.61       1.37      40.05      33.42      73.47        0.12     0.04   0.937
  sub_90561                 78.42       0.00       0.62       1.21      43.59      29.73      73.32        0.09     0.03   0.935
  sub_90562                 78.42       0.00       0.63       1.12      45.71      27.51      73.23        0.09     0.03   0.934
  sub_90563                 78.42       0.00       0.64       1.06      47.19      25.98      73.16        0.08     0.03   0.933
  sub_90564                 78.42       0.00       0.65       0.92      50.54      22.47      73.02        0.06     0.02   0.931
  sub_90565                 78.42       0.00       0.62       1.31      41.40      32.02      73.41        0.07     0.03   0.936
  sub_90566                 78.42       0.00       0.61       1.34      40.59      32.85      73.45        0.08     0.03   0.937
  sub_90567                 78.42       0.00       0.59       1.60      34.60      39.10      73.71        0.06     0.02   0.940
  sub_90568                 78.42       0.00       0.72       0.00      72.09       0.00      72.09        0.03     0.01   0.919
  sub_90569                 78.42       0.00       0.60       1.47      37.57      36.01      73.58        0.05     0.02   0.938
  sub_90570                 78.42       0.00       0.58       1.76      30.89      42.97      73.87        0.04     0.01   0.942
  sub_90571                 78.42       0.00       0.65       0.94      49.97      23.07      73.04        0.06     0.02   0.931
  sub_90572                 78.42       0.00       0.65       0.94      50.12      22.92      73.04        0.08     0.03   0.931
  sub_90573                 78.42       0.00       0.67       0.63      57.36      15.36      72.72        0.07     0.02   0.927
  sub_90574                 78.42       0.00       0.66       0.71      55.38      17.42      72.81        0.06     0.02   0.928
  sub_90575                 78.42       0.00       0.63       1.17      44.74      28.52      73.27        0.08     0.03   0.934
  sub_90576                 78.42       0.00       0.62       1.27      42.37      31.00      73.37        0.08     0.03   0.936
  sub_90577                 78.42       0.00       0.62       1.23      43.25      30.08      73.33        0.07     0.02   0.935
  sub_90578                 78.42       0.00       0.64       1.07      46.94      26.23      73.17        0.09     0.03   0.933
  sub_90579                 78.42       0.00       0.65       0.90      51.04      21.96      73.00        0.08     0.03   0.931
  sub_90580                 78.42       0.00       0.57       1.86      28.38      45.60      73.97        0.07     0.02   0.943
  sub_90581                 78.42       0.00       0.60       1.50      36.84      36.76      73.61        0.07     0.02   0.939
  sub_90582                 78.42       0.00       0.63       1.18      44.42      28.86      73.28        0.07     0.02   0.935
  sub_90583                 78.42       0.00       0.60       1.47      37.52      36.06      73.58        0.07     0.02   0.938
  sub_90584                 78.42       0.00       0.66       0.83      52.71      20.21      72.92        0.07     0.02   0.930
  sub_90585                 78.42       0.00       0.66       0.82      52.78      20.14      72.92        0.08     0.03   0.930
  sub_90586                 78.42       0.00       0.65       0.91      50.84      22.16      73.00        0.07     0.02   0.931
  sub_90587                 78.42       0.00       0.64       1.00      48.66      24.44      73.10        0.06     0.02   0.932
  sub_90588                 78.42       0.00       0.67       0.69      55.96      16.82      72.78        0.06     0.02   0.928
  sub_90589                 78.42       0.00       0.63       1.12      45.73      27.49      73.23        0.07     0.02   0.934
  sub_90590                 78.42       0.00       0.64       1.08      46.71      26.47      73.18        0.09     0.03   0.933
  sub_90591                 78.42       0.00       0.66       0.74      54.82      18.02      72.83        0.07     0.02   0.929
  sub_90592                 78.42       0.00       0.66       0.71      55.34      17.47      72.81        0.07     0.02   0.929
  sub_90593                 78.42       0.00       0.64       0.97      49.41      23.66      73.07        0.07     0.02   0.932
  sub_90594                 78.42       0.00       0.63       1.19      44.11      29.18      73.30        0.10     0.03   0.935
  sub_90595                 78.42       0.00       0.63       1.20      43.85      29.46      73.31        0.07     0.02   0.935
  sub_90596                 78.42       0.00       0.67       0.68      56.07      16.71      72.78        0.06     0.02   0.928
  sub_90597                 78.42       0.00       0.59       1.60      34.52      39.19      73.71        0.05     0.02   0.940
  sub_90598                 78.42       0.00       0.59       1.59      34.80      38.90      73.70        0.04     0.01   0.940
  sub_90599                 78.42       0.00       0.63       1.17      44.69      28.58      73.27        0.04     0.01   0.934
  sub_90600                 78.42       0.00       0.64       1.06      47.19      25.98      73.16        0.04     0.01   0.933
  sub_90601                 78.42       0.00       0.58       1.77      30.53      43.35      73.88        0.06     0.02   0.942
  sub_90602                 78.42       0.00       0.62       1.32      41.19      32.23      73.42        0.06     0.02   0.936
  sub_90603                 78.42       0.00       0.59       1.67      32.85      40.93      73.78        0.06     0.02   0.941
  sub_90604                 78.42       0.00       0.63       1.12      45.87      27.35      73.22        0.06     0.02   0.934
  sub_90605                 78.42       0.00       0.63       1.10      46.28      26.92      73.20        0.12     0.04   0.933
  sub_90606                 78.42       0.00       0.62       1.24      43.09      30.25      73.34        0.06     0.02   0.935
  sub_90607                 78.42       0.00       0.62       1.28      41.96      31.43      73.39        0.05     0.02   0.936
  sub_90608                 78.42       0.00       0.60       1.54      36.04      37.60      73.64        0.06     0.02   0.939
  sub_90609                 78.42       0.00       0.58       1.80      29.75      44.16      73.91        0.05     0.02   0.943
  sub_90610                 78.42       0.00       0.58       1.75      31.04      42.82      73.86        0.05     0.02   0.942
  sub_90611                 78.42       0.00       0.60       1.56      35.39      38.28      73.67        0.04     0.01   0.939
  sub_90612                 78.42       0.00       0.58       1.77      30.64      43.24      73.88        0.06     0.02   0.942
  sub_90613                 78.42       0.00       0.57       1.88      27.91      46.09      73.99        0.09     0.03   0.944
  sub_90615                 78.42       0.00       0.59       1.60      34.48      39.23      73.71        0.12     0.04   0.940
  sub_90616                 78.42       0.00       0.66       0.82      52.83      20.08      72.92        0.12     0.04   0.930
  sub_90617                 78.42       0.00       0.64       1.06      47.16      26.01      73.16        0.10     0.03   0.933
  sub_90618                 78.42       0.00       0.67       0.68      56.03      16.75      72.78        0.15     0.05   0.928
  sub_90619                 78.42       0.00       0.71       0.11      69.51       2.69      72.20        0.04     0.01   0.921
  sub_90620                 78.42       0.00       0.66       0.72      55.19      17.63      72.82        0.05     0.02   0.929
  sub_90621                 78.42       0.00       0.60       1.52      36.38      37.25      73.63        0.16     0.05   0.939
  sub_90623                 78.42       0.00       0.62       1.30      41.53      31.88      73.41        0.14     0.05   0.936
  sub_90624                 78.42       0.00       0.62       1.26      42.60      30.76      73.36        0.03     0.01   0.936
  sub_90625                 78.42       0.00       0.64       1.07      46.94      26.23      73.17        0.06     0.02   0.933
  sub_90626                 78.42       0.00       0.65       0.95      49.68      23.37      73.05        0.05     0.02   0.932
  sub_90627                 78.42       0.00       0.59       1.69      32.35      41.45      73.80        0.09     0.03   0.941
  sub_90628                 78.42       0.00       0.61       1.39      39.54      33.95      73.49        0.15     0.05   0.937
  sub_90629                 78.42       0.00       0.59       1.61      34.30      39.41      73.72        0.11     0.04   0.940
  sub_90630                 78.42       0.00       0.67       0.68      56.16      16.61      72.78        0.06     0.02   0.928
  sub_90631                 78.42       0.00       0.64       1.06      47.17      25.99      73.16        0.06     0.02   0.933
  sub_90632                 78.42       0.00       0.63       1.10      46.28      26.92      73.20        0.06     0.02   0.933
  sub_90633                 78.42       0.00       0.67       0.68      56.24      16.53      72.77        0.07     0.02   0.928
  sub_90634                 78.42       0.00       0.64       1.02      48.06      25.07      73.12        0.04     0.01   0.933
  sub_90635                 78.42       0.00       0.60       1.50      36.90      36.70      73.61        0.06     0.02   0.939
  sub_90636                 78.42       0.00       0.63       1.14      45.45      27.79      73.24        0.07     0.02   0.934
  sub_90637                 78.42       0.00       0.64       1.05      47.39      25.76      73.15        0.08     0.03   0.933
  sub_90638                 78.42       0.00       0.67       0.61      57.67      15.04      72.71        0.11     0.04   0.927
  sub_90639                 78.42       0.00       0.59       1.61      34.42      39.29      73.71        0.08     0.03   0.940
  sub_90640                 78.42       0.00       0.66       0.81      53.18      19.72      72.90        0.09     0.03   0.930
  sub_90641                 78.42       0.00       0.64       0.99      48.82      24.28      73.09        0.09     0.03   0.932
  sub_90642                 78.42       0.00       0.62       1.25      42.72      30.64      73.36        0.06     0.02   0.935
  sub_90643                 78.42       0.00       0.66       0.80      53.27      19.64      72.90        0.13     0.04   0.930
  sub_90644                 78.42       0.00       0.67       0.69      55.81      16.98      72.79        0.07     0.02   0.928
  sub_90645                 78.42       0.00       0.64       0.98      49.02      24.06      73.08        0.04     0.01   0.932
  sub_90646                 78.42       0.00       0.57       1.84      28.84      45.12      73.95        0.06     0.02   0.943
  sub_90647                 78.42       0.00       0.52       2.54      12.60      62.06      74.66        0.08     0.03   0.952
  sub_90648                 78.42       0.00       0.67       0.67      56.42      16.35      72.76        0.05     0.02   0.928
  sub_90649                 78.42       0.00       0.64       0.98      48.99      24.09      73.08        0.08     0.03   0.932
  sub_90650                 78.42       0.00       0.64       0.97      49.36      23.71      73.07        0.15     0.05   0.932
  sub_90651                 78.42       0.00       0.66       0.80      53.37      19.52      72.90        0.08     0.03   0.930
  sub_90652                 78.42       0.00       0.64       1.01      48.39      24.72      73.11        0.05     0.02   0.932
  sub_90653                 78.42       0.00       0.62       1.23      43.25      30.08      73.33        0.05     0.02   0.935
  sub_90654                 78.42       0.00       0.61       1.41      39.05      34.47      73.51        0.02     0.01   0.937
  sub_90655                 78.42       0.00       0.65       0.91      50.68      22.34      73.01        0.07     0.03   0.931
  sub_90656                 78.42       0.00       0.59       1.62      34.04      39.69      73.73        0.08     0.03   0.940
  sub_90657                 78.42       0.00       0.59       1.70      32.11      41.71      73.81        0.09     0.03   0.941
  sub_90658                 78.42       0.00       0.64       0.97      49.26      23.81      73.07        0.09     0.03   0.932
  sub_90659                 78.42       0.00       0.54       2.22      19.89      54.45      74.34        0.04     0.01   0.948
  sub_90662                 78.42       0.00       0.63       1.14      45.39      27.85      73.24        0.02     0.01   0.934
  sub_90663                 78.42       0.00       0.60       1.55      35.62      38.04      73.66        0.19     0.06   0.939
  sub_90664                 78.42       0.00       0.48       3.07       0.00      75.20      75.20        0.02     0.00   0.959
  sub_90665                 78.42       0.00       0.61       1.44      38.39      35.15      73.54        0.07     0.02   0.938
  sub_90669                 78.42       0.00       0.63       1.16      44.81      28.45      73.27        0.03     0.01   0.934
  sub_90670                 78.42       0.00       0.65       0.85      52.13      20.82      72.95        0.05     0.02   0.930
  sub_90671                 78.42       0.00       0.65       0.93      50.15      22.89      73.03        0.02     0.01   0.931
  sub_90672                 78.42       0.00       0.62       1.24      42.93      30.42      73.35        0.07     0.02   0.935
  sub_90673                 78.42       0.00       0.60       1.58      34.93      38.76      73.69        0.07     0.02   0.940
  sub_90674                 78.42       0.00       0.68       0.46      61.33      11.22      72.55        0.10     0.03   0.925
  sub_90675                 78.42       0.00       0.67       0.70      55.68      17.11      72.80        0.11     0.04   0.928
  sub_90676                 78.42       0.00       0.64       1.03      47.86      25.28      73.13        0.09     0.03   0.933
  sub_90677                 78.42       0.00       0.60       1.51      36.68      36.94      73.62        0.04     0.01   0.939
  sub_90678                 78.42       0.00       0.61       1.35      40.37      33.09      73.46        0.06     0.02   0.937
  sub_90679                 78.42       0.00       0.60       1.49      37.21      36.39      73.59        0.11     0.04   0.938
  sub_90680                 78.42       0.00       0.65       0.85      52.06      20.89      72.95        0.11     0.04   0.930
  sub_90681                 78.42       0.00       0.60       1.51      36.64      36.98      73.62        0.04     0.02   0.939
  sub_90682                 78.42       0.00       0.61       1.36      40.22      33.25      73.46        0.07     0.02   0.937
  sub_90683                 78.42       0.00       0.54       2.24      19.45      54.91      74.36        0.05     0.02   0.948
  sub_90684                 78.42       0.00       0.68       0.50      60.35      12.24      72.59        0.03     0.01   0.926
  sub_90685                 78.42       0.00       0.69       0.37      63.51       8.95      72.46        0.03     0.01   0.924
  sub_90686                 78.42       0.00       0.61       1.35      40.37      33.09      73.46        0.04     0.01   0.937
  sub_90688                 78.42       0.00       0.64       1.02      48.06      25.07      73.12        0.05     0.02   0.933
  sub_90689                 78.42       0.00       0.59       1.64      33.64      40.11      73.75        0.03     0.01   0.940
  sub_90690                 78.42       0.00       0.62       1.28      41.94      31.45      73.39        0.04     0.01   0.936
  sub_90691                 78.42       0.00       0.63       1.10      46.18      27.02      73.21        0.05     0.02   0.934
  sub_90692                 78.42       0.00       0.65       0.96      49.66      23.40      73.06        0.03     0.01   0.932
  sub_90693                 78.42       0.00       0.58       1.81      29.68      44.23      73.92        0.03     0.01   0.943
  sub_90694                 78.42       0.00       0.52       2.48      13.95      60.64      74.60        0.02     0.01   0.951
  sub_90695                 78.42       0.00       0.61       1.38      39.65      33.84      73.49        0.03     0.01   0.937
  sub_90696                 78.42       0.00       0.60       1.54      36.04      37.60      73.64        0.03     0.01   0.939
  sub_90697                 78.42       0.00       0.60       1.58      35.01      38.67      73.69        0.03     0.01   0.940
  sub_90698                 78.42       0.00       0.58       1.78      30.23      43.66      73.89        0.02     0.01   0.942
  sub_90699                 78.42       0.00       0.55       2.12      22.37      51.86      74.23        0.02     0.01   0.947
  sub_90700                 78.42       0.00       0.67       0.59      58.36      14.32      72.68        0.02     0.01   0.927
  sub_90701                 78.42       0.00       0.68       0.54      59.37      13.27      72.64        0.01     0.00   0.926
  sub_90702                 78.42       0.00       0.67       0.61      57.67      15.04      72.71        0.01     0.00   0.927
  sub_90703                 78.42       0.00       0.60       1.58      35.07      38.62      73.69        0.05     0.02   0.940
  sub_90704                 78.42       0.00       0.60       1.52      36.47      37.16      73.63        0.06     0.02   0.939
  sub_90705                 78.42       0.00       0.59       1.64      33.57      40.18      73.75        0.10     0.03   0.940
  sub_90706                 78.42       0.00       0.63       1.12      45.71      27.51      73.23        0.03     0.01   0.934
  sub_90707                 78.42       0.00       0.66       0.75      54.51      18.34      72.85        0.03     0.01   0.929
  sub_90708                 78.42       0.00       0.58       1.83      29.25      44.68      73.94        0.10     0.03   0.943
  sub_90709                 78.42       0.00       0.61       1.35      40.37      33.09      73.46        0.07     0.02   0.937
  sub_90710                 78.42       0.00       0.58       1.76      30.70      43.18      73.87        0.11     0.04   0.942
  sub_90724                 78.42       0.00       0.57       1.84      28.84      45.12      73.95        0.04     0.01   0.943
  sub_90725                 78.42       0.00       0.48       3.07       0.00      75.20      75.20        0.02     0.00   0.959
  sub_90726                 78.42       0.00       0.48       3.07       0.00      75.20      75.20        0.01     0.00   0.959
  sub_90727                 78.42       0.00       0.48       3.07       0.00      75.20      75.20        0.01     0.00   0.959
  sub_90728                 78.42       0.00       0.48       3.07       0.00      75.20      75.20        0.04     0.01   0.959
  sub_90729                 78.42       0.00       0.48       3.07       0.00      75.20      75.20        0.02     0.01   0.959
  sub_90730                 78.42       0.00       0.48       3.07       0.00      75.20      75.20        0.04     0.01   0.959
  sub_90731                 78.42       0.00       0.48       3.07       0.00      75.20      75.20        0.04     0.01   0.959
  sub_90732                 78.42       0.00       0.48       3.07       0.00      75.20      75.20        0.01     0.00   0.959
  sub_90733                 78.42       0.00       0.65       0.90      50.89      22.12      73.00        0.04     0.01   0.931
  
  
  ******************
  Node Depth Summary
  ******************
  
  ---------------------------------------------------------------------------------
                                 Average  Maximum  Maximum  Time of Max    Reported
                                   Depth    Depth      HGL   Occurrence   Max Depth
  Node                 Type       Meters   Meters   Meters  days hr:min      Meters
  ---------------------------------------------------------------------------------
  j_9006F              JUNCTION     0.15     2.20     1.84     0  17:12        1.96
  j_90334              JUNCTION     0.11     1.79     1.58     0  16:35        1.79
  j_90335              JUNCTION     0.14     2.27     1.86     0  17:10        2.14
  j_90336              JUNCTION     0.12     2.00     1.83     0  16:36        1.94
  j_90363              JUNCTION     0.17     1.95     1.60     0  16:37        1.95
  j_90364              JUNCTION     0.17     1.94     1.59     0  16:37        1.94
  j_90365              JUNCTION     0.17     1.95     1.60     0  16:35        1.94
  j_90366              JUNCTION     0.12     1.90     1.59     0  17:12        1.87
  j_90367              JUNCTION     0.16     2.05     1.56     0  16:38        2.05
  j_90368              JUNCTION     0.12     2.20     1.91     0  17:12        1.85
  j_90369              JUNCTION     0.12     2.10     1.80     0  17:10        2.02
  j_90370              JUNCTION     0.17     2.20     1.69     0  17:10        2.20
  j_90371              JUNCTION     0.17     2.22     1.66     0  17:13        2.13
  j_90372              JUNCTION     0.10     2.01     1.76     0  17:13        1.68
  j_90373              JUNCTION     0.14     2.25     1.78     0  17:20        1.90
  j_90374              JUNCTION     0.09     2.28     2.00     0  16:37        1.47
  j_90375              JUNCTION     0.10     2.11     1.77     0  17:12        1.52
  j_90376              JUNCTION     0.05     1.90     1.75     0  17:14        0.96
  j_90377              JUNCTION     0.06     1.95     1.78     0  17:13        1.02
  j_90378              JUNCTION     0.11     2.05     1.65     0  16:36        1.85
  j_90379              JUNCTION     0.09     1.85     1.60     0  16:36        1.71
  j_90380              JUNCTION     0.10     1.90     1.57     0  16:36        1.86
  j_90381              JUNCTION     0.14     2.05     1.60     0  17:21        1.96
  j_90382              JUNCTION     0.20     2.50     1.58     0  17:12        2.42
  j_90383              JUNCTION     0.19     2.39     1.57     0  17:12        2.37
  j_90384              JUNCTION     0.16     2.06     1.60     0  17:20        2.02
  j_90385              JUNCTION     0.11     2.00     1.63     0  17:12        1.93
  j_90386              JUNCTION     0.10     1.80     1.57     0  16:36        1.80
  j_90387              JUNCTION     0.10     1.77     1.57     0  16:36        1.72
  j_90388              JUNCTION     0.16     1.90     1.51     0  17:12        1.90
  j_90389              JUNCTION     0.18     2.20     1.59     0  17:12        2.19
  j_90390              JUNCTION     0.16     2.16     1.59     0  17:13        2.13
  j_90391              JUNCTION     0.13     1.93     1.69     0  17:12        1.88
  j_90392              JUNCTION     0.14     2.05     1.80     0  16:36        1.93
  j_90393              JUNCTION     0.12     2.07     1.88     0  16:36        1.94
  j_90394              JUNCTION     0.11     1.88     1.78     0  16:36        1.88
  j_90395              JUNCTION     0.10     1.90     1.82     0  16:37        1.86
  j_90396              JUNCTION     0.09     1.87     1.85     0  16:37        1.80
  j_90397              JUNCTION     0.19     2.35     1.58     0  17:12        2.34
  j_90398              JUNCTION     0.16     2.25     1.63     0  17:12        2.25
  j_90399              JUNCTION     0.12     1.95     1.64     0  17:12        1.95
  j_90400              JUNCTION     0.11     1.90     1.64     0  16:35        1.90
  j_90401              JUNCTION     0.11     1.92     1.61     0  16:35        1.92
  j_90402              JUNCTION     0.12     2.01     1.65     0  16:35        2.01
  j_90403              JUNCTION     0.11     1.90     1.65     0  16:35        1.90
  j_90404              JUNCTION     0.12     1.96     1.66     0  17:12        1.95
  j_90405              JUNCTION     0.15     2.20     1.64     0  17:12        2.20
  j_90406              JUNCTION     0.14     2.15     1.65     0  17:11        2.14
  j_90407              JUNCTION     0.13     2.05     1.64     0  16:35        2.05
  j_90408              JUNCTION     0.12     1.97     1.65     0  16:35        1.97
  j_90427              JUNCTION     0.15     2.05     1.62     0  17:11        1.95
  j_90428              JUNCTION     0.12     1.95     1.58     0  17:11        1.75
  j_90430              JUNCTION     0.04     0.39    -1.18     0  17:21        0.36
  j_90433              JUNCTION     0.08     2.14     1.77     0  17:12        1.05
  j_90434              JUNCTION     0.12     2.20     1.77     0  17:12        1.11
  j_90435              JUNCTION     0.06     2.15     1.78     0  17:13        0.84
  j_90436              JUNCTION     0.06     2.09     1.63     0  17:12        0.85
  j_90437              JUNCTION     0.16     3.15     1.79     0  17:12        1.48
  j_90438              JUNCTION     0.20     3.05     1.70     0  17:12        1.75
  j_90439              JUNCTION     0.06     1.79     1.58     0  17:12        0.99
  j_90440              JUNCTION     0.08     1.78     1.62     0  17:11        1.30
  j_90441              JUNCTION     0.05     1.83     1.70     0  17:21        0.91
  j_90442              JUNCTION     0.17     2.30     1.66     0  17:11        1.93
  j_90443              JUNCTION     0.21     2.90     1.60     0  17:12        1.97
  j_90444              JUNCTION     0.19     2.67     1.56     0  17:21        2.17
  j_90445              JUNCTION     0.09     2.13     1.70     0  17:12        1.51
  j_90446              JUNCTION     0.08     1.95     1.59     0  16:36        1.46
  j_90447              JUNCTION     0.07     1.83     1.58     0  16:36        1.36
  j_90448              JUNCTION     0.08     1.88     1.61     0  16:36        1.56
  j_90449              JUNCTION     0.11     2.13     1.65     0  17:12        1.75
  j_90450              JUNCTION     0.11     2.13     1.66     0  17:12        1.74
  j_90451              JUNCTION     0.19     2.64     1.62     0  17:21        2.27
  j_90452              JUNCTION     0.11     2.07     1.65     0  17:21        1.85
  j_90453              JUNCTION     0.19     2.58     1.62     0  17:12        2.38
  j_90454              JUNCTION     0.13     2.15     1.68     0  16:35        2.07
  j_90455              JUNCTION     0.14     2.19     1.65     0  17:11        2.10
  j_90456              JUNCTION     0.14     2.28     1.62     0  17:12        2.14
  j_90457              JUNCTION     0.15     2.38     1.62     0  17:12        2.04
  j_90459              JUNCTION     0.17     2.64     1.59     0  17:11        1.94
  j_90460              JUNCTION     0.16     2.60     1.64     0  17:12        1.95
  j_90461              JUNCTION     0.20     2.68     1.60     0  17:12        2.07
  j_90462              JUNCTION     0.18     2.57     1.59     0  17:12        2.18
  j_90463              JUNCTION     0.16     2.37     1.64     0  17:12        2.26
  j_90464              JUNCTION     0.15     2.31     1.68     0  17:21        2.24
  j_90465              JUNCTION     0.14     2.20     1.66     0  17:11        2.18
  j_90466              JUNCTION     0.13     2.15     1.71     0  17:11        2.09
  j_90467              JUNCTION     0.14     2.07     1.65     0  17:11        2.07
  j_90468              JUNCTION     0.15     2.23     1.71     0  17:11        2.17
  j_90469              JUNCTION     0.15     2.20     1.64     0  17:11        2.20
  j_90470              JUNCTION     0.17     2.28     1.61     0  17:11        2.28
  j_90471              JUNCTION     0.17     2.31     1.61     0  17:11        2.29
  j_90477              JUNCTION     0.14     1.92     1.61     0  16:35        1.92
  j_90478              JUNCTION     0.16     2.00     1.59     0  16:35        2.00
  j_90479              JUNCTION     0.14     1.91     1.59     0  16:35        1.91
  j_90480              JUNCTION     0.13     1.87     1.62     0  16:31        1.86
  j_90481              JUNCTION     0.16     2.02     1.62     0  17:10        2.00
  j_90482              JUNCTION     0.17     2.07     1.62     0  17:11        2.05
  j_90483              JUNCTION     0.14     1.87     1.59     0  16:31        1.87
  j_90484              JUNCTION     0.12     1.80     1.60     0  16:31        1.79
  j_90485              JUNCTION     0.15     1.92     1.59     0  17:11        1.92
  j_90486              JUNCTION     0.18     2.05     1.59     0  17:12        2.04
  j_90487              JUNCTION     0.17     2.12     1.60     0  17:11        2.09
  j_90488              JUNCTION     0.19     2.22     1.62     0  17:11        2.11
  j_90489              JUNCTION     0.12     1.82     1.59     0  17:11        1.80
  j_90490              JUNCTION     0.14     1.90     1.59     0  17:10        1.89
  j_90491              JUNCTION     0.19     2.15     1.61     0  17:11        2.14
  j_90492              JUNCTION     0.20     2.22     1.60     0  17:20        2.21
  j_90493              JUNCTION     0.14     1.90     1.58     0  17:10        1.90
  j_90494              JUNCTION     0.21     2.32     1.58     0  17:11        2.29
  j_90495              JUNCTION     0.21     2.31     1.60     0  17:12        2.29
  j_90496              JUNCTION     0.14     1.89     1.57     0  16:32        1.89
  j_90497              JUNCTION     0.11     1.77     1.59     0  16:32        1.75
  j_90498              JUNCTION     0.16     2.10     1.62     0  17:10        2.04
  j_90499              JUNCTION     0.16     2.08     1.61     0  17:11        2.06
  j_90500              JUNCTION     0.15     1.99     1.61     0  17:11        1.97
  j_90501              JUNCTION     0.14     1.85     1.58     0  16:35        1.85
  j_90502              JUNCTION     0.13     1.85     1.62     0  16:32        1.81
  j_90503              JUNCTION     0.13     1.82     1.59     0  16:32        1.81
  j_90504              JUNCTION     0.16     1.84     1.56     0  16:35        1.84
  j_90505              JUNCTION     0.17     2.11     1.61     0  17:20        2.08
  j_90506              JUNCTION     0.18     2.13     1.62     0  17:11        2.09
  j_90507              JUNCTION     0.15     2.00     1.63     0  17:10        1.95
  j_90508              JUNCTION     0.17     2.02     1.57     0  16:35        2.02
  j_90509              JUNCTION     0.13     1.88     1.63     0  17:11        1.82
  j_90510              JUNCTION     0.15     1.94     1.63     0  17:10        1.90
  j_90511              JUNCTION     0.23     2.18     1.59     0  16:35        2.18
  j_90512              JUNCTION     0.20     2.16     1.62     0  17:11        2.14
  j_90513              JUNCTION     0.13     1.88     1.62     0  16:33        1.86
  j_90514              JUNCTION     0.14     1.92     1.60     0  16:33        1.92
  j_90515              JUNCTION     0.17     2.39     1.98     0  16:33        1.99
  j_90516              JUNCTION     0.18     2.13     1.69     0  17:11        1.94
  j_90517              JUNCTION     0.19     2.52     1.60     0  17:12        2.30
  j_90518              JUNCTION     0.20     2.52     1.64     0  17:11        2.35
  j_90519              JUNCTION     0.19     2.43     1.60     0  17:11        2.39
  j_90520              JUNCTION     0.13     1.96     1.61     0  17:11        1.91
  j_90521              JUNCTION     0.11     1.82     1.58     0  16:35        1.80
  j_90522              JUNCTION     0.13     1.82     1.55     0  16:35        1.82
  j_90523              JUNCTION     0.11     1.80     1.60     0  16:35        1.77
  j_90524              JUNCTION     0.17     2.04     1.59     0  16:35        2.04
  j_90525              JUNCTION     0.16     1.93     1.58     0  16:35        1.93
  j_90526              JUNCTION     0.14     1.85     1.59     0  16:35        1.85
  j_90527              JUNCTION     0.13     1.78     1.60     0  16:32        1.78
  j_90549              JUNCTION     0.06     2.18     1.77     0  17:12        0.81
  j_90550              JUNCTION     0.20     1.42     0.19     0  17:13        1.40
  j_90551              JUNCTION     0.01     0.16     0.21     0  17:13        0.12
  j_90553              JUNCTION     0.18     2.00     1.62     0  16:31        2.00
  j_90554              JUNCTION     0.15     1.97     1.63     0  16:31        1.97
  j_90555              JUNCTION     0.14     1.95     1.71     0  16:31        1.88
  j_90556              JUNCTION     0.17     2.00     1.63     0  16:31        2.00
  j_90557              JUNCTION     0.18     2.03     1.65     0  17:11        2.01
  j_90558              JUNCTION     0.23     2.33     1.62     0  17:11        2.32
  j_90559              JUNCTION     0.19     2.20     1.62     0  16:35        2.20
  j_90560              JUNCTION     0.19     2.17     1.61     0  16:35        2.17
  j_90561              JUNCTION     0.15     2.00     1.62     0  17:11        1.97
  j_90562              JUNCTION     0.18     2.04     1.59     0  16:35        2.04
  j_90563              JUNCTION     0.21     2.33     1.63     0  17:11        2.27
  j_90564              JUNCTION     0.23     2.45     1.64     0  17:11        2.36
  j_90565              JUNCTION     0.14     1.95     1.61     0  17:10        1.92
  j_90566              JUNCTION     0.12     1.82     1.62     0  17:10        1.79
  j_90567              JUNCTION     0.03     1.75     1.78     0  17:12        0.49
  j_90568              JUNCTION     0.20     2.91     1.80     0  17:13        1.63
  j_90569              JUNCTION     0.16     1.95     1.63     0  17:10        1.91
  j_90570              JUNCTION     0.10     1.70     1.62     0  17:10        1.67
  j_90571              JUNCTION     0.15     2.04     1.61     0  17:11        1.99
  j_90572              JUNCTION     0.23     2.50     1.64     0  17:11        2.36
  j_90573              JUNCTION     0.14     1.93     1.59     0  17:10        1.90
  j_90574              JUNCTION     0.22     2.35     1.55     0  16:04        2.26
  j_90575              JUNCTION     0.25     2.56     1.65     0  17:11        2.24
  j_90576              JUNCTION     0.21     2.55     1.63     0  17:11        2.04
  j_90577              JUNCTION     0.21     2.61     1.63     0  17:20        1.92
  j_90578              JUNCTION     0.20     2.40     1.45     0  17:13        1.92
  j_90579              JUNCTION     0.18     2.65     1.77     0  17:11        1.89
  j_90580              JUNCTION     0.11     1.85     1.72     0  16:33        1.71
  j_90581              JUNCTION     0.12     1.82     1.58     0  16:32        1.81
  j_90582              JUNCTION     0.12     1.86     1.62     0  17:11        1.81
  j_90583              JUNCTION     0.13     1.90     1.59     0  17:11        1.84
  j_90584              JUNCTION     0.14     1.95     1.60     0  17:10        1.91
  j_90585              JUNCTION     0.22     2.44     1.61     0  17:13        2.27
  j_90586              JUNCTION     0.23     2.42     1.60     0  17:13        2.34
  j_90587              JUNCTION     0.23     2.37     1.58     0  17:11        2.34
  j_90588              JUNCTION     0.15     1.93     1.57     0  17:11        1.90
  j_90589              JUNCTION     0.14     1.82     1.54     0  16:35        1.82
  j_90590              JUNCTION     0.13     1.83     1.58     0  17:10        1.82
  j_90591              JUNCTION     0.20     2.22     1.61     0  16:35        2.21
  j_90592              JUNCTION     0.22     2.28     1.61     0  16:35        2.27
  j_90593              JUNCTION     0.23     2.41     1.62     0  17:20        2.36
  j_90594              JUNCTION     0.21     2.32     1.62     0  17:11        2.28
  j_90595              JUNCTION     0.15     1.96     1.62     0  17:11        1.93
  j_90596              JUNCTION     0.15     1.93     1.61     0  16:35        1.91
  j_90597              JUNCTION     0.14     1.87     1.59     0  16:35        1.87
  j_90598              JUNCTION     0.13     1.87     1.62     0  17:10        1.84
  j_90599              JUNCTION     0.15     1.88     1.59     0  16:33        1.88
  j_90600              JUNCTION     0.13     1.95     1.73     0  16:32        1.82
  j_90601              JUNCTION     0.12     1.96     1.79     0  16:32        1.78
  j_90602              JUNCTION     0.14     1.86     1.59     0  16:32        1.86
  j_90603              JUNCTION     0.15     1.89     1.60     0  16:32        1.88
  j_90604              JUNCTION     0.16     1.94     1.58     0  16:33        1.94
  j_90605              JUNCTION     0.18     2.08     1.62     0  17:20        2.05
  j_90606              JUNCTION     0.19     2.09     1.66     0  17:11        2.03
  j_90607              JUNCTION     0.16     2.00     1.62     0  16:32        1.98
  j_90608              JUNCTION     0.15     1.94     1.60     0  16:32        1.94
  j_90609              JUNCTION     0.13     1.73     1.56     0  16:32        1.73
  j_90610              JUNCTION     0.14     1.82     1.60     0  16:32        1.81
  j_90611              JUNCTION     0.14     1.91     1.64     0  17:10        1.87
  j_90612              JUNCTION     0.13     1.83     1.62     0  16:32        1.81
  j_90613              JUNCTION     0.12     1.70     1.60     0  16:32        1.70
  j_90615              JUNCTION     0.04     2.05     1.76     0  17:12        0.70
  j_90616              JUNCTION     0.06     2.40     2.08     0  16:36        1.02
  j_90617              JUNCTION     0.06     2.30     2.07     0  16:36        1.09
  j_90618              JUNCTION     0.09     2.25     1.88     0  17:11        1.29
  j_90619              JUNCTION     0.21     2.44     1.44     0  17:20        1.85
  j_90620              JUNCTION     0.26     2.70     1.65     0  17:20        1.98
  j_90621              JUNCTION     0.22     2.60     1.62     0  17:20        2.09
  j_90623              JUNCTION     0.22     2.50     1.60     0  17:13        2.20
  j_90624              JUNCTION     0.18     2.40     1.61     0  17:13        2.09
  j_90625              JUNCTION     0.19     2.42     1.72     0  17:20        2.23
  j_90626              JUNCTION     0.20     2.49     1.67     0  17:20        2.27
  j_90627              JUNCTION     0.23     2.50     1.62     0  17:13        2.30
  j_90628              JUNCTION     0.14     2.00     1.59     0  17:11        2.00
  j_90629              JUNCTION     0.13     1.96     1.61     0  17:11        1.96
  j_90630              JUNCTION     0.07     1.80     1.61     0  16:35        1.21
  j_90631              JUNCTION     0.15     2.05     1.63     0  17:11        2.04
  j_90632              JUNCTION     0.15     2.07     1.62     0  17:11        2.06
  j_90633              JUNCTION     0.15     2.10     1.62     0  17:11        2.06
  j_90634              JUNCTION     0.27     2.50     1.62     0  17:11        2.40
  j_90635              JUNCTION     0.19     2.39     1.69     0  17:20        2.24
  j_90636              JUNCTION     0.19     2.30     1.73     0  17:11        2.25
  j_90637              JUNCTION     0.20     2.35     1.64     0  17:11        2.26
  j_90638              JUNCTION     0.17     2.08     1.60     0  17:11        2.08
  j_90639              JUNCTION     0.15     2.04     1.64     0  17:11        2.03
  j_90640              JUNCTION     0.13     1.92     1.63     0  17:11        1.92
  j_90641              JUNCTION     0.17     2.60     1.76     0  17:11        1.88
  j_90642              JUNCTION     0.15     2.47     1.74     0  17:11        1.78
  j_90643              JUNCTION     0.15     2.47     1.75     0  17:11        1.77
  j_90644              JUNCTION     0.07     1.90     1.75     0  16:35        1.20
  j_90645              JUNCTION     0.09     1.80     1.87     0  16:34        1.62
  j_90646              JUNCTION     0.13     1.90     1.80     0  16:34        1.79
  j_90647              JUNCTION     0.10     1.70     1.73     0  16:34        1.68
  j_90648              JUNCTION     0.13     1.92     1.63     0  16:35        1.92
  j_90649              JUNCTION     0.12     1.83     1.62     0  16:35        1.83
  j_90650              JUNCTION     0.15     1.98     1.60     0  17:11        1.98
  j_90651              JUNCTION     0.15     2.26     1.82     0  17:11        2.19
  j_90652              JUNCTION     0.15     2.22     1.80     0  17:11        2.19
  j_90653              JUNCTION     0.12     2.05     1.81     0  17:11        2.02
  j_90654              JUNCTION     0.20     2.19     1.59     0  16:35        2.19
  j_90655              JUNCTION     0.21     2.25     1.59     0  17:11        2.24
  j_90656              JUNCTION     0.21     2.30     1.61     0  17:11        2.26
  j_90657              JUNCTION     0.06     1.57     1.80     0  16:35        1.23
  j_90658              JUNCTION     0.06     1.65     1.78     0  16:35        1.30
  j_90659              JUNCTION     0.07     1.81     1.83     0  17:11        1.31
  j_90662              JUNCTION     0.05     2.08     1.76     0  17:12        0.91
  j_90663              JUNCTION     0.16     2.05     1.62     0  16:35        2.05
  j_90664              JUNCTION     0.13     1.90     1.63     0  16:35        1.89
  j_90665              JUNCTION     0.20     2.62     1.65     0  17:20        1.90
  j_90669              JUNCTION     0.17     1.83     1.60     0  16:35        1.83
  j_90670              JUNCTION     0.19     1.87     1.62     0  16:35        1.85
  j_90671              JUNCTION     0.20     1.86     1.60     0  16:35        1.86
  j_90672              JUNCTION     0.17     2.10     1.64     0  16:35        2.07
  j_90673              JUNCTION     0.20     2.17     1.64     0  17:11        2.13
  j_90674              JUNCTION     0.20     2.27     1.67     0  17:11        2.19
  j_90675              JUNCTION     0.16     1.85     1.63     0  16:35        1.82
  j_90676              JUNCTION     0.18     1.83     1.59     0  16:35        1.83
  j_90677              JUNCTION     0.22     1.87     1.58     0  16:35        1.87
  j_90678              JUNCTION     0.12     1.67     1.57     0  16:35        1.67
  j_90679              JUNCTION     0.11     1.58     1.56     0  16:35        1.58
  j_90680              JUNCTION     0.16     1.92     1.62     0  16:35        1.90
  j_90681              JUNCTION     0.18     2.00     1.62     0  16:35        1.98
  j_90682              JUNCTION     0.10     1.60     1.57     0  16:35        1.60
  j_90683              JUNCTION     0.17     2.05     1.60     0  16:35        2.05
  j_90684              JUNCTION     0.15     1.95     1.59     0  16:35        1.95
  j_90685              JUNCTION     0.09     1.72     1.83     0  16:35        1.49
  j_90686              JUNCTION     0.16     2.04     1.64     0  16:35        2.00
  j_90688              JUNCTION     0.01     0.12     0.57     0  17:12        0.12
  j_90689              JUNCTION     0.05     0.77     0.47     0  17:14        0.77
  j_90690              JUNCTION     0.05     1.06     0.81     0  17:14        0.76
  j_90691              JUNCTION     0.03     1.99     2.09     0  17:14        0.54
  j_90692              JUNCTION     0.02     1.94     2.14     0  17:14        0.54
  j_90693              JUNCTION     0.04     1.85     1.88     0  17:14        0.77
  j_90694              JUNCTION     0.04     1.65     1.71     0  17:14        0.74
  j_90695              JUNCTION     0.01     0.49     0.99     0  17:26        0.30
  j_90696              JUNCTION     0.04     0.84     0.84     0  17:26        0.78
  j_90697              JUNCTION     0.04     0.87     0.80     0  17:26        0.82
  j_90698              JUNCTION     0.05     0.87     0.75     0  17:26        0.82
  j_90699              JUNCTION     0.05     2.36     2.18     0  17:21        0.80
  j_90700              JUNCTION     0.01     0.72     1.22     0  17:26        0.28
  j_90701              JUNCTION     0.01     0.60     1.10     0  17:26        0.25
  j_90702              JUNCTION     0.01     0.22     0.72     0  17:42        0.20
  j_90703              JUNCTION     0.17     2.08     1.60     0  17:10        2.08
  j_90704              JUNCTION     0.13     1.82     1.60     0  16:31        1.81
  j_90705              JUNCTION     0.14     1.84     1.58     0  16:35        1.84
  j_90706              JUNCTION     0.19     2.14     1.60     0  16:35        2.14
  j_90707              JUNCTION     0.16     1.99     1.61     0  17:11        1.98
  j_90708              JUNCTION     0.12     1.87     1.76     0  17:10        1.77
  j_90709              JUNCTION     0.13     1.76     1.56     0  16:35        1.76
  j_90710              JUNCTION     0.11     1.62     1.57     0  16:31        1.62
  j_90724              JUNCTION     0.20     1.88     1.62     0  16:35        1.86
  j_90725              JUNCTION     0.11     1.77     1.77     0  16:35        1.64
  j_90726              JUNCTION     0.10     1.72     1.77     0  16:35        1.59
  j_90727              JUNCTION     0.09     1.67     1.77     0  16:35        1.55
  j_90728              JUNCTION     0.10     1.71     1.77     0  16:35        1.60
  j_90729              JUNCTION     0.08     1.54     1.77     0  16:36        1.43
  j_90730              JUNCTION     0.12     1.88     1.80     0  17:11        1.74
  j_90731              JUNCTION     0.10     1.67     1.77     0  16:35        1.57
  j_90732              JUNCTION     0.09     1.62     1.77     0  16:35        1.52
  j_90733              JUNCTION     0.13     1.81     1.67     0  16:35        1.76
  j_91272              JUNCTION     0.07     1.66     1.83     0  16:36        1.39
  j_91273              JUNCTION     0.05     1.68     2.15     0  16:37        1.09
  j_91274              JUNCTION     0.07     1.65     1.88     0  17:12        1.33
  j_91275              JUNCTION     0.05     1.69     2.16     0  16:38        1.10
  j_91276              JUNCTION     0.06     1.59     1.87     0  16:38        1.28
  j_91277              JUNCTION     0.04     1.65     2.16     0  16:39        1.05
  j_91278              JUNCTION     0.05     1.55     1.90     0  16:38        1.21
  j_91279              JUNCTION     0.04     1.67     2.17     0  16:39        1.06
  j_91292              JUNCTION     0.06     2.06     2.05     0  16:37        1.20
  j_91293              JUNCTION     0.08     2.23     2.00     0  16:37        1.42
  j_91294              JUNCTION     0.04     1.67     1.98     0  16:38        0.88
  j_90552              OUTFALL      0.00     0.00    -1.29     0  00:00        0.00
  j_90431              OUTFALL      0.04     0.36    -1.25     0  17:14        0.36
  
  
  *******************
  Node Inflow Summary
  *******************
  
  -------------------------------------------------------------------------------------------------
                                  Maximum  Maximum                  Lateral       Total        Flow
                                  Lateral    Total  Time of Max      Inflow      Inflow     Balance
                                   Inflow   Inflow   Occurrence      Volume      Volume       Error
  Node                 Type           CMS      CMS  days hr:min    10^6 ltr    10^6 ltr     Percent
  -------------------------------------------------------------------------------------------------
  j_9006F              JUNCTION     0.010    0.126     0  17:12      0.0285      0.0309       0.000
  j_90334              JUNCTION     0.029    0.059     0  17:11      0.0868       0.104       0.000
  j_90335              JUNCTION     0.048    0.048     0  17:15        0.14        0.14       0.000
  j_90336              JUNCTION     0.008    0.128     0  17:12       0.023       0.127       0.000
  j_90363              JUNCTION     0.054    0.054     0  17:15       0.157       0.157       0.000
  j_90364              JUNCTION     0.014    0.101     0  17:11      0.0409       0.248      -0.159
  j_90365              JUNCTION     0.002    0.004     0  16:35     0.00677     0.00758       0.486
  j_90366              JUNCTION     0.018    0.018     0  17:15      0.0519      0.0519       0.000
  j_90367              JUNCTION     0.016    0.137     0  17:11       0.048       0.362      -0.084
  j_90368              JUNCTION     0.000    0.113     0  17:12           0      0.0657       0.382
  j_90369              JUNCTION     0.040    0.040     0  17:15       0.119       0.119       0.000
  j_90370              JUNCTION     0.018    0.108     0  17:12      0.0532       0.312      -0.100
  j_90371              JUNCTION     0.024    0.218     0  17:12      0.0711       0.736      -0.112
  j_90372              JUNCTION     0.009    0.026     0  17:11      0.0281      0.0286       0.000
  j_90373              JUNCTION     0.017    0.178     0  17:13      0.0498       0.375      -0.034
  j_90374              JUNCTION     0.000    0.073     0  17:13           0      0.0352       0.000
  j_90375              JUNCTION     0.021    0.199     0  17:13      0.0618       0.413       0.003
  j_90376              JUNCTION     0.003    0.097     0  17:13      0.0102       0.132       0.000
  j_90377              JUNCTION     0.018    0.170     0  17:13      0.0516       0.437      -0.051
  j_90378              JUNCTION     0.019    0.125     0  17:12      0.0569       0.144       0.000
  j_90379              JUNCTION     0.028    0.128     0  17:12      0.0839      0.0865      -0.387
  j_90380              JUNCTION     0.032    0.097     0  17:12      0.0954      0.0963       0.000
  j_90381              JUNCTION     0.019    0.065     0  17:12      0.0573       0.154       0.399
  j_90382              JUNCTION     0.023    0.327     0  17:20      0.0688        1.62      -0.029
  j_90383              JUNCTION     0.020    0.271     0  17:20      0.0592         1.4      -0.030
  j_90384              JUNCTION     0.011    0.064     0  17:12      0.0325       0.166       0.282
  j_90385              JUNCTION     0.016    0.080     0  17:12      0.0474       0.134       0.148
  j_90386              JUNCTION     0.029    0.109     0  17:12      0.0846      0.0864      -0.416
  j_90387              JUNCTION     0.019    0.082     0  17:12      0.0549      0.0566       0.000
  j_90388              JUNCTION     0.011    0.139     0  17:14      0.0337       0.157       0.217
  j_90389              JUNCTION     0.015    0.236     0  17:11      0.0447       0.848       0.000
  j_90390              JUNCTION     0.008    0.200     0  17:11      0.0243       0.564      -0.021
  j_90391              JUNCTION     0.010    0.101     0  17:15      0.0301       0.314       0.053
  j_90392              JUNCTION     0.021    0.091     0  17:15      0.0637       0.287       0.021
  j_90393              JUNCTION     0.035    0.120     0  17:12       0.104       0.229      -0.067
  j_90394              JUNCTION     0.011    0.139     0  17:12      0.0333       0.104      -0.053
  j_90395              JUNCTION     0.014    0.153     0  17:12      0.0408       0.067      -0.194
  j_90396              JUNCTION     0.006    0.149     0  17:12      0.0166      0.0224      -1.059
  j_90397              JUNCTION     0.016    0.250     0  16:36      0.0465        1.18      -0.029
  j_90398              JUNCTION     0.018    0.155     0  16:36      0.0524       0.314      -0.028
  j_90399              JUNCTION     0.019    0.143     0  17:12      0.0555      0.0949       0.186
  j_90400              JUNCTION     0.012    0.382     0  17:12      0.0352        0.17      -0.112
  j_90401              JUNCTION     0.019    0.268     0  17:12       0.056       0.197      -0.276
  j_90402              JUNCTION     0.019    0.145     0  17:12      0.0561       0.102       0.000
  j_90403              JUNCTION     0.011    0.287     0  17:12       0.033       0.153      -0.639
  j_90404              JUNCTION     0.018    0.156     0  17:12      0.0535       0.125       0.081
  j_90405              JUNCTION     0.019    0.094     0  17:12      0.0573        0.19      -0.010
  j_90406              JUNCTION     0.018    0.182     0  17:11      0.0531       0.201      -0.130
  j_90407              JUNCTION     0.014    0.158     0  17:11      0.0413       0.147      -0.621
  j_90408              JUNCTION     0.038    0.144     0  17:11        0.11       0.157       0.079
  j_90427              JUNCTION     0.039    0.131     0  17:20       0.115       0.381       0.000
  j_90428              JUNCTION     0.022    0.148     0  17:11      0.0655        0.41      -0.002
  j_90430              JUNCTION     0.012    2.110     0  17:14      0.0357        8.66       0.000
  j_90433              JUNCTION     0.006    0.007     0  17:12      0.0177      0.0178       0.000
  j_90434              JUNCTION     0.014    0.116     0  17:42      0.0407        0.38       0.110
  j_90435              JUNCTION     0.021    0.133     0  17:43      0.0621       0.441      -0.850
  j_90436              JUNCTION     0.012    0.170     0  17:45      0.0363       0.544       0.000
  j_90437              JUNCTION     0.028    2.098     0  17:15      0.0809        8.63       0.038
  j_90438              JUNCTION     0.022    1.825     0  17:21      0.0637        7.56       0.002
  j_90439              JUNCTION     0.012    0.228     0  17:11      0.0366       0.582       0.000
  j_90440              JUNCTION     0.038    0.186     0  17:11       0.111       0.502      -0.009
  j_90441              JUNCTION     0.017    0.051     0  17:20      0.0512      0.0513      -0.095
  j_90442              JUNCTION     0.039    0.506     0  17:11       0.117        1.71       0.238
  j_90443              JUNCTION     0.055    1.610     0  17:21       0.163        6.89      -0.043
  j_90444              JUNCTION     0.022    0.520     0  17:14      0.0649        2.33      -0.011
  j_90445              JUNCTION     0.019    0.128     0  17:12      0.0567       0.205       0.185
  j_90446              JUNCTION     0.019    0.117     0  17:12      0.0562       0.148      -0.012
[...]
  c_904831                    0.99      0.99      1.06      0.01         0.01
  c_904851                    0.90      0.90      1.01      0.01         0.02
  c_904861                    1.21      1.21      1.28      0.84         0.01
  c_904862                    1.00      1.00      1.14      0.06         0.07
  c_904871                    1.20      1.20      1.56      0.01         0.01
  c_904881                    1.56      1.56      1.77      0.07         0.07
  c_904882                    1.03      1.04      1.03      1.16         1.01
  c_904891                    0.88      0.88      0.97      0.01         0.02
  c_904901                    0.89      0.89      0.97      0.04         0.01
  c_904921                    1.69      1.69      1.82      0.92         0.91
  c_904922                    0.97      0.97      1.31      0.01         0.01
  c_904931                    0.98      0.98      1.02      0.01         0.01
  c_904951                    2.03      2.03      2.05      0.03         0.02
  c_904952                    2.14      2.14      2.15      0.77         0.74
  c_904961                    0.97      0.97      1.30      0.01         0.01
  c_904971                    0.87      0.87      0.99      0.01         0.01
  c_904981                    0.87      0.87      1.00      0.01         0.01
  c_904982                    0.97      0.97      1.04      0.04         0.05
  c_904991                    1.23      1.23      1.23      1.38         1.13
  c_905001                    1.03      1.03      1.23      0.01         0.01
  c_905011                    0.96      0.96      1.01      0.08         0.09
  c_905021                    0.94      0.94      0.96      0.01         0.01
  c_905031                    0.94      0.94      0.96      0.01         0.01
  c_905041                    0.92      0.92      0.95      0.01         0.01
  c_905042                    0.94      0.94      0.97      0.01         0.01
  c_905051                    1.52      1.52      1.99      0.02         0.03
  c_905061                    1.52      1.52      1.59      0.83         0.01
  c_905071                    1.06      1.06      1.59      0.01         0.01
  c_905072                    0.95      0.95      1.06      0.01         0.01
  c_905081                    1.28      1.28      1.49      0.01         0.01
  c_905091                    0.96      0.96      1.15      0.01         0.01
  c_905101                    0.93      0.93      1.01      0.01         0.01
  c_905111                    1.01      1.01      1.26      0.01         0.01
  c_905121                    1.85      1.85      1.99      0.01         0.01
  c_905131                    0.95      0.95      1.47      0.01         0.01
  c_905141                    0.96      0.96      1.01      0.02         0.01
  c_905151                    0.87      0.87      0.96      0.02         0.01
  c_905152                    0.95      0.95      0.99      0.20         0.19
  c_905161                    0.96      1.01      0.96      1.47         0.96
  c_905171                    1.18      1.18      1.46      0.59         0.61
  c_905172                    1.02      1.02      1.02      1.03         0.98
  c_905181                    0.91      0.91      0.97      0.03         0.03
  c_905182                    1.12      1.12      1.24      1.50         0.01
  c_905191                    1.02      1.02      1.09      0.01         0.01
  c_905192                    1.15      1.15      1.24      0.65         0.65
  c_905201                    0.88      0.88      0.91      0.28         0.28
  c_905211                    0.81      0.81      0.88      0.01         0.01
  c_905221                    0.81      0.81      0.83      0.01         0.01
  c_905231                    0.79      0.79      0.81      0.01         0.01
  c_905241                    1.53      1.53      1.91      0.01         0.03
  c_905251                    1.08      1.08      1.53      0.01         0.01
  c_905261                    1.00      1.00      1.08      0.01         0.01
  c_905271                    0.95      0.95      1.00      0.01         0.01
  c_905501                    0.63      0.64      0.64      0.64         0.60
  c_905521                    0.01      0.26      0.01      1.93         0.01
  c_905541                    1.00      1.00      1.06      0.01         0.01
  c_905551                    0.97      0.97      0.98      0.01         0.01
  c_905561                    1.04      1.04      1.06      0.01         0.01
  c_905571                    1.04      1.04      1.04      1.85         0.25
  c_905572                    1.02      1.02      1.06      0.01         0.01
  c_905581                    1.03      1.03      1.57      0.01         0.01
  c_905591                    1.21      1.21      1.70      0.01         0.01
  c_905601                    1.75      1.75      1.82      0.04         0.05
  c_905602                    1.00      1.00      1.75      0.01         0.01
  c_905611                    1.05      1.05      1.18      0.01         0.01
  c_905621                    1.05      1.05      1.26      0.01         0.01
  c_905622                    1.00      1.00      1.26      0.01         0.01
  c_905631                    1.21      1.21      1.35      0.38         0.38
  c_905632                    1.61      1.61      1.65      2.43         0.03
  c_905641                    1.04      1.04      1.25      0.01         0.01
  c_905651                    1.00      1.00      1.28      0.01         0.01
  c_905661                    0.89      0.89      0.97      0.01         0.01
  c_905681                    0.26      0.62      0.26      0.85         0.26
  c_905682                    0.03      0.03      0.26      0.01         0.01
  c_905691                    0.88      0.88      0.98      0.01         0.01
  c_905701                    0.85      0.85      0.88      0.01         0.01
  c_905711                    0.95      0.95      1.06      0.01         0.01
  c_905721                    1.39      1.39      1.45      0.91         0.89
  c_905722                    1.08      1.08      1.60      0.01         0.01
  c_905731                    0.98      0.98      0.99      0.88         0.82
  c_905732                    1.00      1.00      1.32      0.01         0.01
  c_905741                    2.15      2.15      2.20      0.71         0.70
  c_905751                    2.18      2.18      2.30      0.49         0.49
  c_905752                    1.60      1.60      1.80      0.91         0.88
  c_905761                    0.89      0.90      0.89      1.02         0.85
  c_905771                    0.88      0.89      0.90      0.88         0.83
  c_905781                    1.52      1.52      1.72      0.05         0.06
  c_905791                    1.22      1.22      1.52      0.01         0.02
  c_905811                    0.85      0.85      0.92      0.01         0.01
  c_905821                    0.92      0.92      0.92      1.44         0.02
  c_905831                    0.91      0.91      0.97      0.01         0.01
  c_905841                    0.92      0.92      1.01      0.01         0.01
  c_905851                    1.43      1.43      1.74      0.79         0.78
  c_905852                    0.97      0.97      1.36      0.01         0.01
  c_905861                    1.36      1.50      1.36      2.55         1.36
  c_905862                    1.01      1.01      1.27      0.01         0.01
  c_905871                    1.38      1.38      1.50      0.85         0.82
  c_905881                    1.04      1.04      1.69      0.01         0.01
  c_905891                    0.98      0.98      1.04      0.01         0.01
  c_905892                    0.95      0.95      0.98      0.01         0.01
  c_905901                    0.96      0.96      1.28      0.01         0.01
  c_905902                    0.96      0.96      0.96      0.48         0.48
  c_905921                    2.04      2.04      2.08      0.03         0.02
  c_905931                    1.38      1.44      1.38      2.44         1.37
  c_905941                    1.15      1.15      1.44      0.01         0.01
  c_905942                    2.05      2.05      2.08      1.56         0.01
  c_905951                    1.03      1.03      1.32      0.01         0.01
  c_905961                    1.01      1.01      1.32      0.01         0.01
  c_905971                    0.98      0.98      1.03      0.01         0.01
  c_905981                    0.96      0.96      1.01      0.01         0.01
  c_905982                    0.96      0.96      0.98      0.01         0.01
  c_905991                    0.98      0.98      0.99      0.01         0.01
  c_906001                    0.95      0.95      0.98      0.01         0.01
  c_906011                    0.89      0.89      0.95      0.01         0.01
  c_906031                    0.99      0.99      1.00      0.02         0.03
  c_906041                    0.99      0.99      1.09      0.01         0.01
  c_906051                    1.08      1.08      1.34      0.01         0.01
  c_906052                    1.01      1.01      1.19      0.01         0.03
  c_906061                    1.22      1.22      1.34      0.01         0.03
  c_906071                    1.18      1.18      1.29      0.01         0.01
  c_906081                    1.07      1.07      1.18      0.01         0.01
  c_906082                    1.01      1.01      1.07      0.01         0.01
  c_906091                    0.93      0.93      0.99      0.01         0.01
  c_906101                    0.93      0.93      0.96      0.01         0.01
  c_906111                    1.00      1.00      1.19      0.01         0.01
  c_906112                    0.96      0.96      0.99      0.01         0.01
  c_906121                    0.96      0.96      1.00      0.01         0.01
  c_906131                    0.86      0.86      0.96      0.01         0.01
  c_906132                    0.86      0.86      0.95      0.01         0.01
  c_906151                    0.55      0.55      0.62      0.01         0.01
  c_906161                    0.64      0.66      0.64      0.78         0.63
  c_906171                    0.65      0.65      0.66      0.64         0.62
  c_906181                    0.65      0.65      0.86      0.01         0.01
  c_906191                    0.62      0.64      0.62      0.86         0.62
  c_906192                    0.89      0.90      0.89      0.95         0.85
  c_906201                    1.06      1.06      1.09      2.46         0.01
  c_906202                    0.86      0.86      0.98      0.01         0.01
  c_906211                    1.11      1.11      1.28      0.80         0.77
  c_906231                    1.03      1.03      1.11      0.75         0.75
  c_906241                    2.07      2.07      2.17      0.01         0.01
  c_906261                    1.99      1.99      2.13      0.01         0.01
  c_906271                    2.13      2.13      2.16      0.64         0.64
  c_906272                    1.03      1.04      1.03      1.24         1.01
  c_906281                    1.04      1.04      1.26      0.61         0.61
  c_906291                    0.98      0.98      1.04      0.01         0.02
  c_906301                    0.68      0.68      0.70      0.01         0.01
  c_906321                    0.85      0.85      0.98      0.01         0.01
  c_906322                    1.07      1.08      1.07      2.04         1.05
  c_906331                    1.12      1.12      1.16      0.48         0.48
  c_906341                    1.16      1.16      1.59      0.01         0.01
  c_906342                    1.01      1.01      1.01      1.07         0.91
  c_906351                    1.93      1.93      1.99      0.01         0.01
  c_906352                    2.00      2.00      2.01      0.07         0.09
  c_906361                    1.36      1.36      1.97      0.06         0.05
  c_906371                    0.93      0.93      1.08      0.01         0.01
  c_906381                    1.18      1.18      1.39      0.26         0.27
  c_906391                    1.05      1.05      1.22      0.01         0.01
  c_906401                    0.92      0.92      0.95      0.01         0.01
  c_906402                    0.95      0.95      1.01      0.01         0.01
  c_906411                    1.06      1.06      1.22      0.01         0.02
  c_906421                    0.91      0.91      1.06      0.01         0.01
  c_906431                    0.91      0.91      0.91      0.01         0.01
  c_906441                    0.65      0.66      0.70      0.01         0.01
  c_906461                    0.81      0.81      0.94      0.01         0.01
  c_906471                    0.83      0.83      0.92      0.01         0.01
  c_906481                    0.96      0.96      1.06      0.01         0.01
  c_906491                    0.87      0.87      0.94      0.01         0.01
  c_906492                    0.93      0.93      0.93      0.58         0.60
  c_906501                    0.91      0.91      1.05      0.01         0.01
  c_906511                    1.11      1.11      1.45      0.01         0.01
  c_906521                    1.06      1.06      1.11      0.06         0.06
  c_906531                    0.90      0.90      1.06      0.01         0.01
  c_906541                    0.98      0.98      1.04      0.01         0.01
  c_906561                    1.00      1.00      1.04      1.57         0.02
  c_906562                    0.92      0.92      0.93      0.81         0.76
  c_906563                    1.05      1.05      1.30      0.01         0.02
  c_906581                    0.64      0.64      0.66      0.01         0.01
  c_906591                    0.68      0.68      0.69      0.07         0.07
  c_906592                    0.66      0.66      0.68      0.01         0.01
  c_906621                    0.60      0.62      0.62      0.06         0.05
  c_906622                    0.61      0.62      0.62      0.66         0.61
  c_906631                    1.21      1.21      1.21      1.58         0.99
  c_906641                    0.94      0.94      0.94      0.01         0.36
  c_906651                    2.28      2.28      2.28      0.78         0.77
  c_906701                    1.01      1.01      1.05      0.02         0.01
  c_906731                    2.09      2.09      2.09      1.58         1.45
  c_906741                    1.05      1.06      1.05      2.12         0.98
  c_906742                    0.93      0.93      0.97      0.01         0.01
  c_906751                    0.94      0.94      0.95      0.03         0.05
  c_906761                    0.99      0.99      1.03      0.03         0.02
  c_906771                    1.03      1.03      1.10      0.01         0.01
  c_906772                    1.08      1.08      1.10      0.46         0.50
  c_906781                    1.07      1.07      2.05      0.01         0.01
  c_906791                    0.95      0.95      1.07      0.01         0.01
  c_906801                    0.83      0.83      0.90      0.01         0.01
  c_906811                    0.92      0.92      0.94      0.01         0.03
  c_906821                    0.92      0.92      2.03      0.01         0.01
  c_906831                    0.81      0.81      0.83      0.01         0.03
  c_906832                    0.91      0.91      0.95      0.01         0.01
  c_906841                    2.00      2.00      2.01      0.06         0.03
  c_906851                    0.83      0.83      0.92      0.01         0.01
  c_906861                    0.96      0.96      1.02      0.01         0.01
  c_906862                    0.93      0.93      0.96      0.01         0.01
  c_906891                    0.56      0.57      0.56      0.53         0.51
  c_906901                    0.55      0.55      0.57      0.40         0.41
  c_906911                    0.41      0.42      0.41      0.47         0.40
  c_906921                    0.41      0.41      0.42      0.03         0.02
  c_906931                    0.39      0.39      0.41      0.01         0.01
  c_906932                    0.62      0.62      0.64      0.08         0.01
  c_906941                    0.54      0.54      0.62      0.01         0.01
  c_906951                    0.15      0.15      0.37      0.01         0.01
  c_906961                    0.57      0.57      0.58      0.03         0.01
  c_906971                    0.58      0.58      0.60      0.01         0.01
  c_906981                    0.60      0.60      0.61      0.08         0.08
  c_906991                    0.61      0.61      0.61      0.54         0.51
  c_906992                    0.60      0.61      0.61      0.64         0.55
  c_907001                    0.13      0.13      0.35      0.01         0.01
  c_907011                    0.10      0.10      0.21      0.01         0.01
  c_907021                    0.01      0.01      0.14      0.01         0.01
  c_907031                    1.26      1.26      1.37      0.01         0.02
  c_907032                    1.19      1.19      1.69      0.01         0.01
  c_907033                    1.37      1.37      1.58      0.01         0.01
  c_907041                    0.94      0.94      0.97      0.01         0.01
  c_907042                    0.90      0.90      0.94      0.19         0.01
  c_907051                    0.97      0.97      1.08      0.01         0.01
  c_907061                    1.88      1.88      2.03      0.01         0.01
  c_907062                    1.88      1.88      2.04      0.01         0.01
  c_907071                    1.35      1.35      1.37      0.05         0.09
  c_907081                    0.98      0.98      1.24      0.01         0.01
  c_907091                    1.06      1.06      1.84      0.01         0.01
  c_907101                    0.97      0.97      1.06      0.01         0.01
  c_907241                    1.05      1.05      1.08      0.01         0.01
  c_907242                    1.08      1.08      1.08      1.02         0.78
  c_907251                    0.94      0.94      1.27      0.01         0.01
  c_907261                    0.90      0.90      0.94      0.01         0.01
  c_907271                    0.84      0.84      0.90      0.01         0.01
  c_907281                    0.80      0.80      0.89      0.01         0.01
  c_907291                    0.77      0.77      0.89      0.02         0.01
  c_907301                    0.89      0.89      1.03      0.01         0.01
  c_907311                    0.84      0.84      1.03      0.01         0.01
  c_907321                    0.80      0.80      0.84      0.01         0.01
  c_907331                    1.03      1.03      1.14      0.02         0.02
  c_907332                    1.14      1.14      1.24      0.02         0.01
  c_912721                    0.82      0.83      0.83      0.23         0.07
  c_912731                    0.58      0.58      0.71      0.01         0.01
  c_912741                    0.79      0.80      0.83      0.19         0.07
  c_912751                    0.55      0.55      0.68      0.01         0.01
  c_912761                    0.74      0.74      0.80      0.09         0.02
  c_912771                    0.52      0.52      0.63      0.01         0.01
  c_912781                    0.64      0.64      0.74      0.03         0.02
  c_912791                    0.51      0.51      0.61      0.01         0.01
  c_912931                    0.80      0.80      1.02      0.01         0.01
  c_912932                    1.02      1.02      1.03      0.07         0.01
  c_912941                    0.56      0.56      0.62      0.01         0.01
  

  Analysis begun on:  Sun Jun 12 01:32:58 2022
  Analysis ended on:  Sun Jun 12 01:33:17 2022
  Total elapsed time: 00:00:19