
  EPA STORM WATER MANAGEMENT MODEL - VERSION 5.1 (Build 5.1.015)
  --------------------------------------------------------------

  WARNING 04: minimum elevation drop used for Conduit c_903642
  WARNING 04: minimum elevation drop used for Conduit c_903651
  WARNING 04: minimum elevation drop used for Conduit c_903672
  WARNING 04: minimum elevation drop used for Conduit c_905571
  WARNING 04: minimum elevation drop used for Conduit c_905632
  WARNING 04: minimum elevation drop used for Conduit c_905821
  WARNING 04: minimum elevation drop used for Conduit c_905861
  WARNING 04: minimum elevation drop used for Conduit c_905931
  WARNING 04: minimum elevation drop used for Conduit c_906201
  WARNING 04: minimum elevation drop used for Conduit c_906322
  WARNING 04: minimum elevation drop used for Conduit c_906631
  WARNING 04: minimum elevation drop used for Conduit c_906641
  WARNING 04: minimum elevation drop used for Conduit c_906651
  WARNING 04: minimum elevation drop used for Conduit c_906731
  WARNING 04: minimum elevation drop used for Conduit c_906741
  WARNING 04: minimum elevation drop used for Conduit c_907242
  
  *********************
  Rainfall File Summary
  *********************
  Station    First        Last         Recording   Periods    Periods    Periods
  ID         Date         Date         Frequency  w/Precip    Missing    Malfunc.
  -------------------------------------------------------------------------------
  R1         01/01/2019   01/01/2019       5 min        35          0          0
  R1         01/01/2019   01/01/2019       5 min        35          0          0
  R1         01/01/2019   01/01/2019       5 min        35          0          0

  
  *********************************************************
  NOTE: The summary statistics displayed in this report are
  based on results found at every computational time step,  
  not just on results from each reporting time step.
  *********************************************************
  
  ****************
  Analysis Options
  ****************
  Flow Units ............... CMS
  Process Models:
    Rainfall/Runoff ........ YES
    RDII ................... NO
    Snowmelt ............... NO
    Groundwater ............ NO
    Flow Routing ........... YES
    Ponding Allowed ........ NO
    Water Quality .......... NO
  Infiltration Method ...... HORTON
  Flow Routing Method ...... DYNWAVE
  Surcharge Method ......... EXTRAN
  Starting Date ............ 01/01/2019 00:00:00
  Ending Date .............. 01/01/2019 02:55:00
  Antecedent Dry Days ...... 0.0
  Report Time Step ......... 00:05:00
  Wet Time Step ............ 00:01:00
  Dry Time Step ............ 00:10:00
  Routing Time Step ........ 1.00 sec
  Variable Time Step ....... YES
  Maximum Trials ........... 12
  Number of Threads ........ 2
  Head Tolerance ........... 0.000200 m
  
  
  **************************        Volume         Depth
  Runoff Quantity Continuity     hectare-m            mm
  **************************     ---------       -------
  Total Precipitation ......         0.273         9.829
  Evaporation Loss .........         0.002         0.076
  Infiltration Loss ........         0.016         0.559
  Surface Runoff ...........         0.159         5.718
  Final Storage ............         0.099         3.567
  Continuity Error (%) .....        -0.917
  
  
  **************************        Volume        Volume
  Flow Routing Continuity        hectare-m      10^6 ltr
  **************************     ---------     ---------
  Dry Weather Inflow .......         0.000         0.000
  Wet Weather Inflow .......         0.159         1.587
  Groundwater Inflow .......         0.000         0.000
  RDII Inflow ..............         0.000         0.000
  External Inflow ..........         0.000         0.000
  External Outflow .........         0.157         1.575
  Flooding Loss ............         0.000         0.000
  Evaporation Loss .........         0.000         0.000
  Exfiltration Loss ........         0.000         0.000
  Initial Stored Volume ....         0.000         0.000
  Final Stored Volume ......         0.002         0.021
  Continuity Error (%) .....        -0.574
  
  
  *************************
  Highest Continuity Errors
  *************************
  Node j_90434 (5.88%)
  Node j_90638 (3.18%)
  Node j_90650 (3.12%)
  Node j_90670 (2.86%)
  Node j_90628 (2.67%)
  
  
  ***************************
  Time-Step Critical Elements
  ***************************
  Link c_904312 (22.67%)
  
  
  ********************************
  Highest Flow Instability Indexes
  ********************************
  All links are stable.
  
  
  *************************
  Routing Time Step Summary
  *************************
  Minimum Time Step           :     0.50 sec
  Average Time Step           :     0.95 sec
  Maximum Time Step           :     1.00 sec
  Percent in Steady State     :     2.85
  Average Iterations per Step :     2.06
  Percent Not Converging      :     0.38
  Time Step Frequencies       :
      1.000 -  0.871 sec      :    81.35 %
      0.871 -  0.758 sec      :     6.80 %
      0.758 -  0.660 sec      :    11.55 %
      0.660 -  0.574 sec      :     0.09 %
      0.574 -  0.500 sec      :     0.21 %
  
  
  ***************************
  Subcatchment Runoff Summary
  ***************************
  
  ------------------------------------------------------------------------------------------------------------------------------
                            Total      Total      Total      Total     Imperv       Perv      Total       Total     Peak  Runoff
                           Precip      Runon       Evap      Infil     Runoff     Runoff     Runoff      Runoff   Runoff   Coeff
  Subcatchment                 mm         mm         mm         mm         mm         mm         mm    10^6 ltr      CMS
  ------------------------------------------------------------------------------------------------------------------------------
  sub_9006F                  9.83       0.00       0.08       0.46       2.59       2.81       5.41        0.00     0.00   0.550
  sub_90334                  9.83       0.00       0.08       1.22       0.47       7.42       7.89        0.01     0.01   0.803
  sub_90335                  9.83       0.00       0.08       0.28       3.10       1.71       4.81        0.01     0.01   0.489
  sub_90336                  9.83       0.00       0.08       0.94       1.25       5.72       6.97        0.00     0.00   0.710
  sub_90363                  9.83       0.00       0.08       0.28       3.10       1.72       4.82        0.01     0.01   0.490
  sub_90364                  9.83       0.00       0.08       1.04       0.99       6.29       7.28        0.00     0.00   0.741
  sub_90365                  9.83       0.00       0.08       1.39       0.00       8.44       8.44        0.00     0.00   0.859
  sub_90366                  9.83       0.00       0.08       0.47       2.57       2.85       5.43        0.00     0.00   0.552
  sub_90367                  9.83       0.00       0.08       0.79       1.67       4.81       6.48        0.00     0.00   0.659
  sub_90369                  9.83       0.00       0.08       0.57       2.30       3.44       5.74        0.01     0.01   0.584
  sub_90370                  9.83       0.00       0.08       0.38       2.82       2.31       5.14        0.00     0.00   0.523
  sub_90371                  9.83       0.00       0.08       0.20       3.33       1.21       4.54        0.00     0.01   0.462
  sub_90372                  9.83       0.00       0.08       0.88       1.43       5.33       6.77        0.00     0.00   0.688
  sub_90373                  9.83       0.00       0.08       0.06       3.72       0.37       4.09        0.00     0.00   0.416
  sub_90375                  9.83       0.00       0.08       0.28       3.11       1.69       4.80        0.00     0.00   0.488
  sub_90376                  9.83       0.00       0.08       0.50       2.50       3.02       5.51        0.00     0.00   0.561
  sub_90377                  9.83       0.00       0.08       0.29       3.07       1.78       4.85        0.00     0.00   0.493
  sub_90378                  9.83       0.00       0.08       0.39       2.79       2.38       5.17        0.00     0.00   0.526
  sub_90379                  9.83       0.00       0.08       0.66       2.05       4.00       6.05        0.01     0.01   0.615
  sub_90380                  9.83       0.00       0.08       0.60       2.21       3.64       5.85        0.01     0.01   0.595
  sub_90381                  9.83       0.00       0.08       0.61       2.19       3.68       5.87        0.00     0.00   0.598
  sub_90382                  9.83       0.00       0.08       0.50       2.48       3.05       5.54        0.01     0.01   0.563
  sub_90383                  9.83       0.00       0.08       0.43       2.69       2.61       5.29        0.00     0.00   0.539
  sub_90384                  9.83       0.00       0.08       0.82       1.59       4.99       6.58        0.00     0.00   0.669
  sub_90385                  9.83       0.00       0.08       0.36       2.87       2.21       5.08        0.00     0.00   0.517
  sub_90386                  9.83       0.00       0.08       0.67       2.03       4.04       6.07        0.01     0.01   0.617
  sub_90387                  9.83       0.00       0.08       0.52       2.44       3.15       5.59        0.00     0.00   0.569
  sub_90388                  9.83       0.00       0.08       0.51       2.45       3.12       5.57        0.00     0.00   0.567
  sub_90389                  9.83       0.00       0.08       0.57       2.29       3.46       5.76        0.00     0.00   0.586
  sub_90390                  9.83       0.00       0.08       0.72       1.89       4.35       6.23        0.00     0.00   0.634
  sub_90391                  9.83       0.00       0.08       1.39       0.00       8.44       8.44        0.00     0.00   0.859
  sub_90392                  9.83       0.00       0.08       0.89       1.40       5.40       6.80        0.01     0.00   0.692
  sub_90393                  9.83       0.00       0.08       0.88       1.43       5.33       6.76        0.01     0.01   0.688
  sub_90394                  9.83       0.00       0.08       0.83       1.56       5.07       6.62        0.00     0.00   0.674
  sub_90395                  9.83       0.00       0.08       0.32       2.99       1.96       4.95        0.00     0.00   0.503
  sub_90396                  9.83       0.00       0.08       0.00       3.89       0.00       3.89        0.00     0.00   0.396
  sub_90397                  9.83       0.00       0.08       0.75       1.79       4.56       6.35        0.00     0.00   0.646
  sub_90398                  9.83       0.00       0.08       0.78       1.70       4.76       6.45        0.00     0.00   0.657
  sub_90399                  9.83       0.00       0.08       0.44       2.66       2.67       5.33        0.00     0.00   0.542
  sub_90400                  9.83       0.00       0.08       0.52       2.43       3.17       5.60        0.00     0.00   0.569
  sub_90401                  9.83       0.00       0.08       0.31       3.03       1.86       4.89        0.00     0.00   0.498
  sub_90402                  9.83       0.00       0.08       0.33       2.98       1.97       4.95        0.00     0.00   0.504
  sub_90403                  9.83       0.00       0.08       0.53       2.42       3.19       5.61        0.00     0.00   0.571
  sub_90404                  9.83       0.00       0.08       0.55       2.34       3.35       5.70        0.00     0.00   0.580
  sub_90405                  9.83       0.00       0.08       0.61       2.19       3.68       5.87        0.00     0.00   0.598
  sub_90406                  9.83       0.00       0.08       0.73       1.84       4.46       6.29        0.00     0.00   0.640
  sub_90407                  9.83       0.00       0.08       0.72       1.87       4.37       6.25        0.00     0.00   0.636
  sub_90408                  9.83       0.00       0.08       0.46       2.60       2.80       5.40        0.01     0.01   0.549
  sub_90427                  9.83       0.00       0.08       0.54       2.38       3.28       5.66        0.01     0.01   0.576
  sub_90428                  9.83       0.00       0.08       0.66       2.05       3.98       6.04        0.01     0.00   0.614
  sub_90430                  9.83       0.00       0.08       0.31       3.02       1.90       4.91        0.00     0.00   0.500
  sub_90431                  9.83       0.00       0.08       0.50       2.48       3.06       5.54        0.00     0.00   0.563
  sub_90433                  9.83       0.00       0.08       0.70       1.94       4.22       6.17        0.00     0.00   0.627
  sub_90434                  9.83       0.00       0.08       0.25       3.19       1.51       4.70        0.00     0.00   0.478
  sub_90435                  9.83       0.00       0.08       0.44       2.65       2.68       5.34        0.00     0.00   0.543
  sub_90436                  9.83       0.00       0.08       0.22       3.27       1.35       4.62        0.00     0.00   0.470
  sub_90437                  9.83       0.00       0.08       0.35       2.91       2.13       5.04        0.01     0.01   0.512
  sub_90438                  9.83       0.00       0.08       0.50       2.50       3.01       5.51        0.00     0.00   0.561
  sub_90439                  9.83       0.00       0.08       0.50       2.49       3.04       5.53        0.00     0.00   0.562
  sub_90440                  9.83       0.00       0.08       0.57       2.30       3.44       5.75        0.01     0.01   0.585
  sub_90441                  9.83       0.00       0.08       0.93       1.30       5.63       6.92        0.00     0.00   0.705
  sub_90442                  9.83       0.00       0.08       1.09       0.84       6.61       7.46        0.01     0.01   0.759
  sub_90443                  9.83       0.00       0.08       0.81       1.62       4.93       6.55        0.01     0.01   0.666
  sub_90444                  9.83       0.00       0.08       0.39       2.80       2.37       5.17        0.00     0.00   0.526
  sub_90445                  9.83       0.00       0.08       0.69       1.97       4.17       6.14        0.00     0.00   0.624
  sub_90446                  9.83       0.00       0.08       0.42       2.73       2.52       5.25        0.00     0.00   0.534
  sub_90447                  9.83       0.00       0.08       0.65       2.08       3.93       6.01        0.01     0.01   0.611
  sub_90448                  9.83       0.00       0.08       0.60       2.21       3.65       5.86        0.01     0.01   0.596
  sub_90449                  9.83       0.00       0.08       0.57       2.30       3.44       5.74        0.00     0.00   0.584
  sub_90450                  9.83       0.00       0.08       0.48       2.55       2.91       5.46        0.00     0.00   0.555
  sub_90451                  9.83       0.00       0.08       0.61       2.18       3.70       5.88        0.01     0.00   0.599
  sub_90452                  9.83       0.00       0.08       0.78       1.70       4.75       6.45        0.00     0.00   0.656
  sub_90453                  9.83       0.00       0.08       0.40       2.76       2.44       5.21        0.00     0.00   0.530
  sub_90454                  9.83       0.00       0.08       0.54       2.37       3.29       5.66        0.01     0.01   0.576
  sub_90455                  9.83       0.00       0.08       0.30       3.05       1.81       4.86        0.00     0.00   0.495
  sub_90456                  9.83       0.00       0.08       0.81       1.63       4.90       6.53        0.01     0.01   0.664
  sub_90457                  9.83       0.00       0.08       0.79       1.67       4.82       6.49        0.01     0.01   0.660
  sub_90459                  9.83       0.00       0.08       0.96       1.20       5.85       7.04        0.01     0.01   0.716
  sub_90460                  9.83       0.00       0.08       1.29       0.28       7.83       8.11        0.01     0.01   0.826
  sub_90461                  9.83       0.00       0.08       0.46       2.59       2.81       5.41        0.00     0.00   0.550
  sub_90462                  9.83       0.00       0.08       0.65       2.06       3.97       6.03        0.01     0.00   0.613
  sub_90463                  9.83       0.00       0.08       0.34       2.95       2.04       4.99        0.00     0.00   0.507
  sub_90464                  9.83       0.00       0.08       0.56       2.33       3.39       5.72        0.01     0.01   0.582
  sub_90465                  9.83       0.00       0.08       0.30       3.05       1.81       4.86        0.00     0.00   0.495
  sub_90466                  9.83       0.00       0.08       0.52       2.43       3.17       5.60        0.01     0.01   0.569
  sub_90467                  9.83       0.00       0.08       0.26       3.17       1.55       4.72        0.01     0.01   0.481
  sub_90468                  9.83       0.00       0.08       0.49       2.51       3.00       5.51        0.01     0.01   0.560
  sub_90469                  9.83       0.00       0.08       0.30       3.05       1.81       4.86        0.00     0.00   0.495
  sub_90470                  9.83       0.00       0.08       0.51       2.46       3.11       5.56        0.01     0.01   0.566
  sub_90471                  9.83       0.00       0.08       0.42       2.70       2.57       5.28        0.01     0.01   0.537
  sub_90477                  9.83       0.00       0.08       0.29       3.08       1.76       4.84        0.01     0.01   0.492
  sub_90478                  9.83       0.00       0.08       0.34       2.95       2.04       4.99        0.00     0.00   0.507
  sub_90479                  9.83       0.00       0.08       0.80       1.66       4.84       6.50        0.00     0.00   0.661
  sub_90480                  9.83       0.00       0.08       0.39       2.79       2.38       5.17        0.01     0.01   0.526
  sub_90481                  9.83       0.00       0.08       0.50       2.50       3.02       5.52        0.01     0.01   0.561
  sub_90482                  9.83       0.00       0.08       0.52       2.44       3.15       5.59        0.00     0.00   0.568
  sub_90483                  9.83       0.00       0.08       1.04       0.97       6.33       7.30        0.01     0.01   0.743
  sub_90484                  9.83       0.00       0.08       0.43       2.67       2.64       5.31        0.01     0.01   0.540
  sub_90485                  9.83       0.00       0.08       0.78       1.70       4.76       6.45        0.01     0.01   0.657
  sub_90486                  9.83       0.00       0.08       0.58       2.26       3.53       5.79        0.01     0.01   0.589
  sub_90487                  9.83       0.00       0.08       0.50       2.50       3.02       5.52        0.01     0.01   0.561
  sub_90488                  9.83       0.00       0.08       0.61       2.19       3.69       5.88        0.01     0.01   0.598
  sub_90489                  9.83       0.00       0.08       0.31       3.03       1.87       4.89        0.00     0.00   0.498
  sub_90490                  9.83       0.00       0.08       0.28       3.12       1.67       4.79        0.00     0.01   0.487
  sub_90491                  9.83       0.00       0.08       0.32       2.98       1.97       4.95        0.01     0.01   0.504
  sub_90492                  9.83       0.00       0.08       0.44       2.67       2.65       5.32        0.01     0.01   0.541
  sub_90493                  9.83       0.00       0.08       0.30       3.06       1.80       4.86        0.00     0.00   0.495
  sub_90494                  9.83       0.00       0.08       0.28       3.09       1.72       4.82        0.00     0.01   0.490
  sub_90495                  9.83       0.00       0.08       0.45       2.64       2.70       5.35        0.01     0.01   0.544
  sub_90496                  9.83       0.00       0.08       0.30       3.06       1.80       4.86        0.00     0.00   0.495
  sub_90497                  9.83       0.00       0.08       0.27       3.14       1.62       4.76        0.00     0.01   0.484
  sub_90498                  9.83       0.00       0.08       0.50       2.49       3.04       5.53        0.01     0.01   0.563
  sub_90499                  9.83       0.00       0.08       0.87       1.45       5.30       6.75        0.01     0.01   0.686
  sub_90500                  9.83       0.00       0.08       0.64       2.10       3.89       5.98        0.01     0.01   0.609
  sub_90501                  9.83       0.00       0.08       0.28       3.10       1.71       4.81        0.00     0.01   0.489
  sub_90502                  9.83       0.00       0.08       0.55       2.35       3.34       5.69        0.01     0.01   0.579
  sub_90503                  9.83       0.00       0.08       0.31       3.02       1.88       4.90        0.00     0.00   0.499
  sub_90504                  9.83       0.00       0.08       0.29       3.09       1.74       4.83        0.00     0.01   0.491
  sub_90505                  9.83       0.00       0.08       0.34       2.95       2.04       4.99        0.00     0.01   0.508
  sub_90506                  9.83       0.00       0.08       0.37       2.86       2.23       5.09        0.00     0.00   0.518
  sub_90507                  9.83       0.00       0.08       0.38       2.81       2.34       5.15        0.00     0.01   0.524
  sub_90508                  9.83       0.00       0.08       0.37       2.85       2.27       5.11        0.00     0.00   0.520
  sub_90509                  9.83       0.00       0.08       0.77       1.73       4.68       6.41        0.00     0.00   0.652
  sub_90510                  9.83       0.00       0.08       0.35       2.92       2.11       5.03        0.00     0.00   0.511
  sub_90511                  9.83       0.00       0.08       0.60       2.22       3.62       5.84        0.00     0.00   0.594
  sub_90512                  9.83       0.00       0.08       0.40       2.78       2.40       5.18        0.01     0.01   0.527
  sub_90513                  9.83       0.00       0.08       0.27       3.13       1.64       4.77        0.01     0.01   0.486
  sub_90514                  9.83       0.00       0.08       0.36       2.88       2.18       5.07        0.01     0.01   0.515
  sub_90515                  9.83       0.00       0.08       0.63       2.12       3.83       5.95        0.01     0.01   0.606
  sub_90516                  9.83       0.00       0.08       0.88       1.42       5.35       6.78        0.00     0.00   0.689
  sub_90517                  9.83       0.00       0.08       0.64       2.11       3.87       5.98        0.00     0.00   0.608
  sub_90518                  9.83       0.00       0.08       0.19       3.35       1.16       4.51        0.00     0.00   0.459
  sub_90519                  9.83       0.00       0.08       0.71       1.91       4.30       6.21        0.01     0.01   0.632
  sub_90520                  9.83       0.00       0.08       0.69       1.96       4.19       6.15        0.01     0.01   0.625
  sub_90521                  9.83       0.00       0.08       0.41       2.75       2.47       5.22        0.00     0.00   0.531
  sub_90522                  9.83       0.00       0.08       0.33       2.98       1.98       4.95        0.00     0.00   0.504
  sub_90523                  9.83       0.00       0.08       0.40       2.76       2.45       5.21        0.01     0.01   0.530
  sub_90524                  9.83       0.00       0.08       0.68       1.99       4.12       6.11        0.01     0.01   0.622
  sub_90525                  9.83       0.00       0.08       0.86       1.50       5.19       6.69        0.02     0.01   0.680
  sub_90526                  9.83       0.00       0.08       0.69       1.97       4.17       6.14        0.00     0.00   0.624
  sub_90527                  9.83       0.00       0.08       0.89       1.41       5.38       6.79        0.01     0.00   0.691
  sub_90549                  9.83       0.00       0.08       0.64       2.09       3.91       6.00        0.00     0.00   0.610
  sub_90550                  9.83       0.00       0.08       0.00       3.89       0.00       3.89        0.00     0.00   0.396
  sub_90551                  9.83       0.00       0.08       0.75       1.78       4.57       6.35        0.00     0.00   0.646
  sub_90552                  9.83       0.00       0.08       0.31       3.03       1.87       4.90        0.01     0.02   0.498
  sub_90553                  9.83       0.00       0.08       0.72       1.87       4.38       6.25        0.00     0.00   0.636
  sub_90554                  9.83       0.00       0.08       0.69       1.97       4.17       6.14        0.00     0.00   0.624
  sub_90555                  9.83       0.00       0.08       0.84       1.55       5.09       6.63        0.01     0.00   0.675
  sub_90556                  9.83       0.00       0.08       0.92       1.32       5.57       6.89        0.01     0.01   0.701
  sub_90557                  9.83       0.00       0.08       0.47       2.57       2.87       5.44        0.01     0.01   0.553
  sub_90558                  9.83       0.00       0.08       0.48       2.55       2.90       5.45        0.01     0.01   0.555
  sub_90559                  9.83       0.00       0.08       0.75       1.79       4.55       6.34        0.01     0.01   0.645
  sub_90560                  9.83       0.00       0.08       0.62       2.16       3.75       5.91        0.01     0.01   0.602
  sub_90561                  9.83       0.00       0.08       0.55       2.35       3.34       5.69        0.01     0.01   0.579
  sub_90562                  9.83       0.00       0.08       0.51       2.47       3.09       5.55        0.01     0.01   0.565
  sub_90563                  9.83       0.00       0.08       0.48       2.54       2.92       5.46        0.01     0.01   0.556
  sub_90564                  9.83       0.00       0.08       0.42       2.73       2.52       5.25        0.00     0.00   0.534
  sub_90565                  9.83       0.00       0.08       0.59       2.23       3.59       5.83        0.01     0.01   0.593
  sub_90566                  9.83       0.00       0.08       0.61       2.19       3.69       5.88        0.01     0.01   0.598
  sub_90567                  9.83       0.00       0.08       0.72       1.87       4.39       6.26        0.00     0.00   0.637
  sub_90568                  9.83       0.00       0.08       0.00       3.89       0.00       3.89        0.00     0.00   0.396
  sub_90569                  9.83       0.00       0.08       0.67       2.03       4.04       6.07        0.00     0.00   0.617
  sub_90570                  9.83       0.00       0.08       0.79       1.67       4.82       6.49        0.00     0.00   0.660
  sub_90571                  9.83       0.00       0.08       0.43       2.70       2.59       5.29        0.00     0.00   0.538
  sub_90572                  9.83       0.00       0.08       0.42       2.70       2.57       5.28        0.01     0.01   0.537
  sub_90573                  9.83       0.00       0.08       0.28       3.09       1.72       4.82        0.00     0.01   0.490
  sub_90574                  9.83       0.00       0.08       0.32       2.99       1.96       4.94        0.00     0.00   0.503
  sub_90575                  9.83       0.00       0.08       0.53       2.41       3.20       5.62        0.01     0.01   0.571
  sub_90576                  9.83       0.00       0.08       0.57       2.29       3.48       5.77        0.01     0.01   0.587
  sub_90577                  9.83       0.00       0.08       0.56       2.33       3.38       5.71        0.01     0.00   0.581
  sub_90578                  9.83       0.00       0.08       0.49       2.53       2.95       5.48        0.01     0.01   0.557
  sub_90579                  9.83       0.00       0.08       0.41       2.75       2.47       5.22        0.01     0.01   0.531
  sub_90580                  9.83       0.00       0.08       0.84       1.53       5.12       6.65        0.01     0.01   0.677
  sub_90581                  9.83       0.00       0.08       0.68       1.99       4.13       6.12        0.01     0.00   0.622
  sub_90582                  9.83       0.00       0.08       0.53       2.40       3.24       5.64        0.01     0.01   0.573
  sub_90583                  9.83       0.00       0.08       0.67       2.02       4.05       6.07        0.01     0.01   0.618
  sub_90584                  9.83       0.00       0.08       0.37       2.84       2.27       5.11        0.00     0.01   0.520
  sub_90585                  9.83       0.00       0.08       0.37       2.85       2.26       5.11        0.01     0.01   0.520
  sub_90586                  9.83       0.00       0.08       0.41       2.74       2.49       5.23        0.00     0.01   0.532
  sub_90587                  9.83       0.00       0.08       0.45       2.62       2.74       5.37        0.00     0.00   0.546
  sub_90588                  9.83       0.00       0.08       0.31       3.02       1.89       4.91        0.00     0.00   0.499
  sub_90589                  9.83       0.00       0.08       0.51       2.47       3.09       5.55        0.01     0.01   0.565
  sub_90590                  9.83       0.00       0.08       0.49       2.52       2.97       5.49        0.01     0.01   0.559
  sub_90591                  9.83       0.00       0.08       0.33       2.96       2.02       4.98        0.00     0.01   0.507
  sub_90592                  9.83       0.00       0.08       0.32       2.98       1.96       4.95        0.00     0.01   0.503
  sub_90593                  9.83       0.00       0.08       0.44       2.66       2.66       5.32        0.00     0.00   0.541
  sub_90594                  9.83       0.00       0.08       0.54       2.38       3.28       5.66        0.01     0.01   0.575
  sub_90595                  9.83       0.00       0.08       0.54       2.36       3.31       5.67        0.01     0.01   0.577
  sub_90596                  9.83       0.00       0.08       0.31       3.02       1.88       4.90        0.00     0.00   0.499
  sub_90597                  9.83       0.00       0.08       0.72       1.86       4.40       6.26        0.00     0.00   0.637
  sub_90598                  9.83       0.00       0.08       0.72       1.88       4.37       6.24        0.00     0.00   0.635
  sub_90599                  9.83       0.00       0.08       0.53       2.41       3.21       5.62        0.00     0.00   0.572
  sub_90600                  9.83       0.00       0.08       0.48       2.54       2.92       5.46        0.00     0.00   0.556
  sub_90601                  9.83       0.00       0.08       0.80       1.65       4.87       6.51        0.01     0.00   0.663
  sub_90602                  9.83       0.00       0.08       0.60       2.22       3.62       5.84        0.00     0.00   0.594
  sub_90603                  9.83       0.00       0.08       0.76       1.77       4.60       6.37        0.01     0.00   0.648
  sub_90604                  9.83       0.00       0.08       0.51       2.47       3.07       5.54        0.00     0.00   0.564
  sub_90605                  9.83       0.00       0.08       0.50       2.50       3.02       5.52        0.01     0.01   0.561
  sub_90606                  9.83       0.00       0.08       0.56       2.32       3.40       5.72        0.00     0.00   0.582
  sub_90607                  9.83       0.00       0.08       0.58       2.26       3.53       5.79        0.00     0.00   0.589
  sub_90608                  9.83       0.00       0.08       0.70       1.94       4.22       6.17        0.01     0.00   0.627
  sub_90609                  9.83       0.00       0.08       0.82       1.60       4.96       6.56        0.00     0.00   0.668
  sub_90610                  9.83       0.00       0.08       0.79       1.67       4.81       6.48        0.00     0.00   0.659
  sub_90611                  9.83       0.00       0.08       0.71       1.91       4.30       6.21        0.00     0.00   0.632
  sub_90612                  9.83       0.00       0.08       0.80       1.65       4.85       6.51        0.01     0.00   0.662
  sub_90613                  9.83       0.00       0.08       0.85       1.51       5.17       6.68        0.01     0.01   0.680
  sub_90615                  9.83       0.00       0.08       0.73       1.86       4.41       6.26        0.01     0.01   0.637
  sub_90616                  9.83       0.00       0.08       0.37       2.85       2.26       5.10        0.01     0.01   0.519
  sub_90617                  9.83       0.00       0.08       0.48       2.54       2.92       5.46        0.01     0.01   0.556
  sub_90618                  9.83       0.00       0.08       0.31       3.02       1.88       4.90        0.01     0.01   0.499
  sub_90619                  9.83       0.00       0.08       0.05       3.75       0.30       4.05        0.00     0.00   0.412
  sub_90620                  9.83       0.00       0.08       0.33       2.98       1.98       4.96        0.00     0.00   0.504
  sub_90621                  9.83       0.00       0.08       0.69       1.96       4.18       6.14        0.01     0.01   0.625
  sub_90623                  9.83       0.00       0.08       0.59       2.24       3.58       5.82        0.01     0.01   0.592
  sub_90624                  9.83       0.00       0.08       0.57       2.30       3.45       5.75        0.00     0.00   0.585
  sub_90625                  9.83       0.00       0.08       0.49       2.53       2.95       5.48        0.00     0.00   0.557
  sub_90626                  9.83       0.00       0.08       0.43       2.68       2.62       5.30        0.00     0.00   0.540
  sub_90627                  9.83       0.00       0.08       0.77       1.75       4.65       6.40        0.01     0.01   0.651
  sub_90628                  9.83       0.00       0.08       0.63       2.13       3.81       5.94        0.01     0.01   0.605
  sub_90629                  9.83       0.00       0.08       0.73       1.85       4.43       6.28        0.01     0.01   0.638
  sub_90630                  9.83       0.00       0.08       0.31       3.03       1.87       4.89        0.00     0.00   0.498
  sub_90631                  9.83       0.00       0.08       0.48       2.54       2.92       5.46        0.00     0.00   0.556
  sub_90632                  9.83       0.00       0.08       0.50       2.50       3.02       5.52        0.00     0.00   0.561
  sub_90633                  9.83       0.00       0.08       0.31       3.03       1.86       4.89        0.00     0.01   0.497
  sub_90634                  9.83       0.00       0.08       0.46       2.59       2.81       5.41        0.00     0.00   0.550
  sub_90635                  9.83       0.00       0.08       0.68       1.99       4.12       6.11        0.01     0.00   0.622
  sub_90636                  9.83       0.00       0.08       0.51       2.45       3.12       5.57        0.01     0.01   0.567
  sub_90637                  9.83       0.00       0.08       0.48       2.56       2.89       5.45        0.01     0.01   0.554
  sub_90638                  9.83       0.00       0.08       0.28       3.11       1.69       4.80        0.01     0.01   0.488
  sub_90639                  9.83       0.00       0.08       0.73       1.86       4.41       6.27        0.01     0.01   0.638
  sub_90640                  9.83       0.00       0.08       0.36       2.87       2.21       5.08        0.01     0.01   0.517
  sub_90641                  9.83       0.00       0.08       0.45       2.63       2.73       5.36        0.01     0.01   0.545
  sub_90642                  9.83       0.00       0.08       0.57       2.30       3.44       5.74        0.00     0.00   0.584
  sub_90643                  9.83       0.00       0.08       0.36       2.87       2.20       5.08        0.01     0.01   0.517
  sub_90644                  9.83       0.00       0.08       0.31       3.01       1.91       4.92        0.00     0.01   0.500
  sub_90645                  9.83       0.00       0.08       0.45       2.64       2.70       5.35        0.00     0.00   0.544
  sub_90646                  9.83       0.00       0.08       0.83       1.56       5.07       6.62        0.01     0.00   0.674
  sub_90647                  9.83       0.00       0.08       1.15       0.68       6.97       7.65        0.01     0.01   0.778
  sub_90648                  9.83       0.00       0.08       0.30       3.04       1.84       4.88        0.00     0.00   0.496
  sub_90649                  9.83       0.00       0.08       0.45       2.64       2.71       5.35        0.01     0.01   0.544
  sub_90650                  9.83       0.00       0.08       0.44       2.66       2.66       5.32        0.01     0.01   0.542
  sub_90651                  9.83       0.00       0.08       0.36       2.88       2.19       5.07        0.01     0.01   0.516
  sub_90652                  9.83       0.00       0.08       0.46       2.61       2.78       5.39        0.00     0.00   0.548
  sub_90653                  9.83       0.00       0.08       0.56       2.33       3.38       5.71        0.00     0.00   0.581
  sub_90654                  9.83       0.00       0.08       0.64       2.11       3.87       5.98        0.00     0.00   0.608
  sub_90655                  9.83       0.00       0.08       0.41       2.73       2.51       5.24        0.01     0.01   0.533
  sub_90656                  9.83       0.00       0.08       0.73       1.84       4.46       6.29        0.01     0.01   0.640
  sub_90657                  9.83       0.00       0.08       0.77       1.73       4.68       6.41        0.01     0.01   0.653
  sub_90658                  9.83       0.00       0.08       0.44       2.66       2.67       5.33        0.01     0.01   0.542
  sub_90659                  9.83       0.00       0.08       1.01       1.07       6.11       7.19        0.00     0.00   0.731
  sub_90662                  9.83       0.00       0.08       0.52       2.45       3.13       5.58        0.00     0.00   0.567
  sub_90663                  9.83       0.00       0.08       0.70       1.92       4.27       6.19        0.02     0.01   0.630
  sub_90664                  9.83       0.00       0.08       1.39       0.00       8.44       8.44        0.00     0.00   0.859
  sub_90665                  9.83       0.00       0.08       0.65       2.07       3.95       6.02        0.01     0.01   0.612
  sub_90669                  9.83       0.00       0.08       0.53       2.42       3.19       5.61        0.00     0.00   0.571
  sub_90670                  9.83       0.00       0.08       0.39       2.81       2.34       5.15        0.00     0.00   0.524
  sub_90671                  9.83       0.00       0.08       0.42       2.70       2.57       5.27        0.00     0.00   0.537
  sub_90672                  9.83       0.00       0.08       0.56       2.32       3.42       5.73        0.01     0.00   0.583
  sub_90673                  9.83       0.00       0.08       0.72       1.88       4.35       6.24        0.01     0.01   0.634
  sub_90674                  9.83       0.00       0.08       0.21       3.31       1.26       4.57        0.01     0.01   0.465
  sub_90675                  9.83       0.00       0.08       0.32       3.00       1.92       4.92        0.01     0.01   0.501
  sub_90676                  9.83       0.00       0.08       0.47       2.58       2.84       5.42        0.01     0.01   0.551
  sub_90677                  9.83       0.00       0.08       0.68       1.98       4.15       6.13        0.00     0.00   0.623
  sub_90678                  9.83       0.00       0.08       0.61       2.18       3.72       5.89        0.00     0.00   0.599
  sub_90679                  9.83       0.00       0.08       0.67       2.01       4.09       6.09        0.01     0.01   0.620
  sub_90680                  9.83       0.00       0.08       0.39       2.81       2.35       5.15        0.01     0.01   0.524
  sub_90681                  9.83       0.00       0.08       0.68       1.98       4.15       6.13        0.00     0.00   0.623
  sub_90682                  9.83       0.00       0.08       0.61       2.17       3.73       5.90        0.01     0.01   0.600
  sub_90683                  9.83       0.00       0.08       1.02       1.05       6.16       7.21        0.00     0.00   0.734
  sub_90684                  9.83       0.00       0.08       0.23       3.26       1.37       4.63        0.00     0.00   0.471
  sub_90685                  9.83       0.00       0.08       0.17       3.43       1.01       4.43        0.00     0.00   0.451
  sub_90686                  9.83       0.00       0.08       0.61       2.18       3.72       5.89        0.00     0.00   0.599
  sub_90688                  9.83       0.00       0.08       0.46       2.59       2.81       5.41        0.00     0.00   0.550
  sub_90689                  9.83       0.00       0.08       0.74       1.81       4.50       6.32        0.00     0.00   0.643
  sub_90690                  9.83       0.00       0.08       0.58       2.26       3.53       5.79        0.00     0.00   0.589
  sub_90691                  9.83       0.00       0.08       0.50       2.49       3.03       5.53        0.00     0.00   0.562
  sub_90692                  9.83       0.00       0.08       0.43       2.68       2.63       5.31        0.00     0.00   0.540
  sub_90693                  9.83       0.00       0.08       0.82       1.60       4.97       6.57        0.00     0.00   0.668
  sub_90694                  9.83       0.00       0.08       1.12       0.75       6.81       7.56        0.00     0.00   0.769
  sub_90695                  9.83       0.00       0.08       0.63       2.14       3.80       5.94        0.00     0.00   0.604
  sub_90696                  9.83       0.00       0.08       0.70       1.94       4.22       6.17        0.00     0.00   0.627
  sub_90697                  9.83       0.00       0.08       0.72       1.89       4.34       6.23        0.00     0.00   0.634
  sub_90698                  9.83       0.00       0.08       0.81       1.63       4.90       6.53        0.00     0.00   0.665
  sub_90699                  9.83       0.00       0.08       0.96       1.21       5.82       7.03        0.00     0.00   0.715
  sub_90700                  9.83       0.00       0.08       0.26       3.15       1.61       4.76        0.00     0.00   0.484
  sub_90701                  9.83       0.00       0.08       0.25       3.20       1.49       4.69        0.00     0.00   0.477
  sub_90702                  9.83       0.00       0.08       0.28       3.11       1.69       4.80        0.00     0.00   0.488
  sub_90703                  9.83       0.00       0.08       0.71       1.89       4.34       6.23        0.00     0.00   0.634
  sub_90704                  9.83       0.00       0.08       0.69       1.97       4.17       6.14        0.01     0.00   0.625
  sub_90705                  9.83       0.00       0.08       0.74       1.81       4.51       6.32        0.01     0.01   0.643
  sub_90706                  9.83       0.00       0.08       0.51       2.47       3.09       5.55        0.00     0.00   0.565
  sub_90707                  9.83       0.00       0.08       0.34       2.94       2.06       5.00        0.00     0.00   0.509
  sub_90708                  9.83       0.00       0.08       0.83       1.58       5.02       6.59        0.01     0.01   0.671
  sub_90709                  9.83       0.00       0.08       0.61       2.18       3.72       5.89        0.01     0.01   0.599
  sub_90710                  9.83       0.00       0.08       0.80       1.66       4.85       6.50        0.01     0.01   0.662
  sub_90724                  9.83       0.00       0.08       0.83       1.56       5.07       6.62        0.00     0.00   0.674
  sub_90725                  9.83       0.00       0.08       1.39       0.00       8.44       8.44        0.00     0.00   0.859
  sub_90726                  9.83       0.00       0.08       1.39       0.00       8.44       8.44        0.00     0.00   0.859
  sub_90727                  9.83       0.00       0.08       1.39       0.00       8.44       8.44        0.00     0.00   0.859
  sub_90728                  9.83       0.00       0.08       1.39       0.00       8.44       8.44        0.00     0.00   0.859
  sub_90729                  9.83       0.00       0.08       1.39       0.00       8.44       8.44        0.00     0.00   0.859
  sub_90730                  9.83       0.00       0.08       1.39       0.00       8.44       8.44        0.00     0.00   0.859
  sub_90731                  9.83       0.00       0.08       1.39       0.00       8.44       8.44        0.00     0.00   0.859
  sub_90732                  9.83       0.00       0.08       1.39       0.00       8.44       8.44        0.00     0.00   0.859
  sub_90733                  9.83       0.00       0.08       0.41       2.74       2.48       5.23        0.00     0.00   0.532
  
  
  ******************
  Node Depth Summary
  ******************
  
  ---------------------------------------------------------------------------------
                                 Average  Maximum  Maximum  Time of Max    Reported
                                   Depth    Depth      HGL   Occurrence   Max Depth
  Node                 Type       Meters   Meters   Meters  days hr:min      Meters
  ---------------------------------------------------------------------------------
  j_9006F              JUNCTION     0.04     0.20    -0.16     0  01:45        0.20
  j_90334              JUNCTION     0.02     0.10    -0.11     0  01:35        0.10
  j_90335              JUNCTION     0.03     0.18    -0.23     0  01:40        0.17
  j_90336              JUNCTION     0.04     0.17     0.00     0  01:40        0.17
  j_90363              JUNCTION     0.06     0.21    -0.14     0  01:40        0.21
  j_90364              JUNCTION     0.06     0.21    -0.14     0  01:40        0.21
  j_90365              JUNCTION     0.06     0.21    -0.14     0  01:40        0.20
  j_90366              JUNCTION     0.02     0.10    -0.21     0  01:41        0.09
  j_90367              JUNCTION     0.06     0.27    -0.22     0  01:40        0.27
  j_90368              JUNCTION     0.01     0.07    -0.22     0  01:40        0.07
  j_90369              JUNCTION     0.02     0.08    -0.22     0  01:37        0.08
  j_90370              JUNCTION     0.07     0.28    -0.23     0  01:40        0.27
  j_90371              JUNCTION     0.08     0.32    -0.24     0  01:40        0.31
  j_90372              JUNCTION     0.01     0.03    -0.22     0  01:40        0.03
  j_90373              JUNCTION     0.04     0.23    -0.24     0  01:41        0.23
  j_90374              JUNCTION     0.00     0.05    -0.23     0  01:42        0.04
  j_90375              JUNCTION     0.02     0.11    -0.23     0  01:42        0.10
  j_90376              JUNCTION     0.01     0.06    -0.09     0  01:40        0.06
  j_90377              JUNCTION     0.01     0.06    -0.11     0  01:40        0.06
  j_90378              JUNCTION     0.03     0.14    -0.26     0  01:40        0.14
  j_90379              JUNCTION     0.02     0.09    -0.16     0  01:40        0.09
  j_90380              JUNCTION     0.02     0.10    -0.23     0  01:40        0.10
  j_90381              JUNCTION     0.05     0.17    -0.28     0  01:40        0.17
  j_90382              JUNCTION     0.11     0.45    -0.47     0  01:42        0.45
  j_90383              JUNCTION     0.10     0.40    -0.42     0  01:42        0.40
  j_90384              JUNCTION     0.06     0.20    -0.26     0  01:39        0.20
  j_90385              JUNCTION     0.02     0.11    -0.26     0  01:40        0.11
  j_90386              JUNCTION     0.02     0.09    -0.14     0  01:40        0.09
  j_90387              JUNCTION     0.01     0.07    -0.13     0  01:40        0.07
  j_90388              JUNCTION     0.05     0.15    -0.24     0  01:40        0.15
  j_90389              JUNCTION     0.08     0.31    -0.30     0  01:41        0.30
  j_90390              JUNCTION     0.07     0.30    -0.27     0  01:41        0.29
  j_90391              JUNCTION     0.06     0.20    -0.04     0  01:40        0.20
  j_90392              JUNCTION     0.06     0.22    -0.03     0  01:40        0.22
  j_90393              JUNCTION     0.04     0.18    -0.01     0  01:40        0.18
  j_90394              JUNCTION     0.02     0.12     0.02     0  01:40        0.11
  j_90395              JUNCTION     0.02     0.11     0.03     0  01:40        0.11
  j_90396              JUNCTION     0.01     0.05     0.03     0  01:40        0.05
  j_90397              JUNCTION     0.10     0.40    -0.37     0  01:41        0.40
  j_90398              JUNCTION     0.05     0.25    -0.37     0  01:42        0.25
  j_90399              JUNCTION     0.02     0.09    -0.22     0  01:40        0.09
  j_90400              JUNCTION     0.01     0.05    -0.21     0  01:40        0.05
  j_90401              JUNCTION     0.02     0.08    -0.23     0  01:40        0.08
  j_90402              JUNCTION     0.02     0.09    -0.27     0  01:40        0.09
  j_90403              JUNCTION     0.01     0.04    -0.21     0  01:40        0.04
  j_90404              JUNCTION     0.02     0.08    -0.22     0  01:40        0.08
  j_90405              JUNCTION     0.04     0.20    -0.36     0  01:42        0.20
  j_90406              JUNCTION     0.03     0.15    -0.35     0  01:43        0.15
  j_90407              JUNCTION     0.01     0.06    -0.35     0  01:40        0.06
  j_90408              JUNCTION     0.02     0.10    -0.22     0  01:40        0.10
  j_90427              JUNCTION     0.06     0.28    -0.15     0  01:40        0.28
  j_90428              JUNCTION     0.04     0.22    -0.15     0  01:40        0.22
  j_90430              JUNCTION     0.03     0.12    -1.45     0  01:45        0.12
  j_90433              JUNCTION     0.03     0.13    -0.24     0  01:40        0.13
  j_90434              JUNCTION     0.07     0.19    -0.24     0  01:40        0.19
  j_90435              JUNCTION     0.03     0.11    -0.26     0  01:40        0.10
  j_90436              JUNCTION     0.04     0.19    -0.27     0  01:40        0.18
  j_90437              JUNCTION     0.14     0.52    -0.84     0  01:45        0.52
  j_90438              JUNCTION     0.18     0.62    -0.73     0  01:45        0.62
  j_90439              JUNCTION     0.02     0.09    -0.12     0  01:40        0.09
  j_90440              JUNCTION     0.01     0.08    -0.08     0  01:40        0.08
  j_90441              JUNCTION     0.01     0.05    -0.08     0  01:40        0.05
  j_90442              JUNCTION     0.13     0.42    -0.22     0  01:41        0.42
  j_90443              JUNCTION     0.18     0.64    -0.66     0  01:45        0.64
  j_90444              JUNCTION     0.11     0.48    -0.63     0  01:45        0.48
  j_90445              JUNCTION     0.03     0.14    -0.29     0  01:40        0.14
  j_90446              JUNCTION     0.02     0.12    -0.24     0  01:40        0.12
  j_90447              JUNCTION     0.02     0.10    -0.15     0  01:40        0.10
  j_90448              JUNCTION     0.02     0.09    -0.18     0  01:40        0.09
  j_90449              JUNCTION     0.03     0.13    -0.35     0  01:40        0.13
  j_90450              JUNCTION     0.02     0.10    -0.37     0  01:40        0.10
  j_90451              JUNCTION     0.11     0.43    -0.59     0  01:45        0.43
  j_90452              JUNCTION     0.02     0.11    -0.31     0  01:40        0.11
  j_90453              JUNCTION     0.11     0.44    -0.52     0  01:43        0.44
  j_90454              JUNCTION     0.03     0.13    -0.34     0  01:40        0.13
  j_90455              JUNCTION     0.04     0.15    -0.39     0  01:40        0.15
  j_90456              JUNCTION     0.06     0.23    -0.43     0  01:40        0.23
  j_90457              JUNCTION     0.07     0.28    -0.48     0  01:40        0.27
  j_90459              JUNCTION     0.09     0.41    -0.64     0  01:45        0.41
  j_90460              JUNCTION     0.07     0.34    -0.62     0  01:45        0.34
  j_90461              JUNCTION     0.12     0.46    -0.62     0  01:45        0.46
  j_90462              JUNCTION     0.10     0.40    -0.58     0  01:45        0.40
  j_90463              JUNCTION     0.05     0.21    -0.52     0  01:44        0.21
  j_90464              JUNCTION     0.03     0.16    -0.47     0  01:40        0.16
  j_90465              JUNCTION     0.03     0.15    -0.39     0  01:40        0.14
  j_90466              JUNCTION     0.02     0.12    -0.32     0  01:40        0.12
  j_90467              JUNCTION     0.03     0.16    -0.26     0  01:40        0.16
  j_90468              JUNCTION     0.05     0.23    -0.29     0  01:40        0.23
  j_90469              JUNCTION     0.04     0.19    -0.37     0  01:40        0.19
  j_90470              JUNCTION     0.05     0.25    -0.42     0  01:41        0.24
  j_90471              JUNCTION     0.05     0.24    -0.46     0  01:41        0.23
  j_90477              JUNCTION     0.02     0.10    -0.21     0  01:40        0.10
  j_90478              JUNCTION     0.05     0.22    -0.19     0  01:45        0.22
  j_90479              JUNCTION     0.02     0.12    -0.20     0  01:45        0.12
  j_90480              JUNCTION     0.01     0.07    -0.18     0  01:40        0.07
  j_90481              JUNCTION     0.05     0.22    -0.18     0  01:45        0.22
  j_90482              JUNCTION     0.07     0.27    -0.18     0  01:45        0.27
  j_90483              JUNCTION     0.03     0.12    -0.16     0  01:40        0.12
  j_90484              JUNCTION     0.01     0.08    -0.12     0  01:40        0.08
  j_90485              JUNCTION     0.04     0.18    -0.15     0  01:40        0.17
  j_90486              JUNCTION     0.08     0.31    -0.15     0  01:40        0.30
  j_90487              JUNCTION     0.08     0.35    -0.17     0  01:41        0.34
  j_90488              JUNCTION     0.11     0.41    -0.19     0  01:41        0.40
  j_90489              JUNCTION     0.01     0.07    -0.16     0  01:40        0.07
  j_90490              JUNCTION     0.02     0.13    -0.18     0  01:45        0.13
  j_90491              JUNCTION     0.10     0.36    -0.18     0  01:45        0.36
  j_90492              JUNCTION     0.12     0.44    -0.18     0  01:45        0.44
  j_90493              JUNCTION     0.03     0.14    -0.18     0  01:45        0.14
  j_90494              JUNCTION     0.15     0.54    -0.20     0  01:46        0.54
  j_90495              JUNCTION     0.15     0.53    -0.18     0  01:44        0.53
  j_90496              JUNCTION     0.03     0.14    -0.18     0  01:45        0.14
  j_90497              JUNCTION     0.01     0.05    -0.13     0  01:40        0.05
  j_90498              JUNCTION     0.07     0.29    -0.19     0  01:42        0.29
  j_90499              JUNCTION     0.07     0.29    -0.18     0  01:42        0.29
  j_90500              JUNCTION     0.04     0.21    -0.17     0  01:43        0.21
  j_90501              JUNCTION     0.03     0.13    -0.14     0  01:40        0.13
  j_90502              JUNCTION     0.02     0.10    -0.13     0  01:40        0.10
  j_90503              JUNCTION     0.01     0.09    -0.14     0  01:40        0.09
  j_90504              JUNCTION     0.04     0.14    -0.14     0  01:40        0.14
  j_90505              JUNCTION     0.07     0.33    -0.17     0  01:45        0.32
  j_90506              JUNCTION     0.09     0.34    -0.17     0  01:45        0.34
  j_90507              JUNCTION     0.04     0.20    -0.17     0  01:44        0.20
  j_90508              JUNCTION     0.06     0.28    -0.17     0  01:45        0.28
  j_90509              JUNCTION     0.01     0.08    -0.17     0  01:46        0.08
  j_90510              JUNCTION     0.03     0.17    -0.14     0  01:45        0.17
  j_90511              JUNCTION     0.13     0.45    -0.14     0  01:45        0.45
  j_90512              JUNCTION     0.11     0.41    -0.13     0  01:45        0.41
  j_90513              JUNCTION     0.02     0.12    -0.14     0  01:43        0.12
  j_90514              JUNCTION     0.03     0.15    -0.17     0  01:42        0.15
  j_90515              JUNCTION     0.05     0.18    -0.23     0  01:44        0.18
  j_90516              JUNCTION     0.06     0.18    -0.26     0  01:44        0.18
  j_90517              JUNCTION     0.09     0.38    -0.54     0  01:44        0.38
  j_90518              JUNCTION     0.09     0.37    -0.51     0  01:44        0.37
  j_90519              JUNCTION     0.08     0.34    -0.49     0  01:42        0.34
  j_90520              JUNCTION     0.04     0.20    -0.15     0  01:40        0.20
  j_90521              JUNCTION     0.02     0.11    -0.13     0  01:40        0.11
  j_90522              JUNCTION     0.04     0.14    -0.13     0  01:40        0.14
  j_90523              JUNCTION     0.02     0.12    -0.08     0  01:40        0.12
  j_90524              JUNCTION     0.07     0.32    -0.13     0  01:45        0.32
  j_90525              JUNCTION     0.05     0.23    -0.12     0  01:45        0.23
  j_90526              JUNCTION     0.03     0.15    -0.11     0  01:40        0.15
  j_90527              JUNCTION     0.02     0.10    -0.08     0  01:40        0.10
  j_90549              JUNCTION     0.03     0.15    -0.26     0  01:40        0.15
  j_90550              JUNCTION     0.22     0.63    -0.60     0  01:49        0.63
  j_90551              JUNCTION     0.01     0.05     0.10     0  01:40        0.05
  j_90553              JUNCTION     0.06     0.21    -0.17     0  01:40        0.21
  j_90554              JUNCTION     0.04     0.17    -0.17     0  01:40        0.17
  j_90555              JUNCTION     0.02     0.10    -0.14     0  01:40        0.10
  j_90556              JUNCTION     0.05     0.20    -0.17     0  01:40        0.20
  j_90557              JUNCTION     0.06     0.21    -0.17     0  01:40        0.21
  j_90558              JUNCTION     0.14     0.48    -0.23     0  01:45        0.48
  j_90559              JUNCTION     0.08     0.35    -0.23     0  01:45        0.35
  j_90560              JUNCTION     0.08     0.33    -0.23     0  01:45        0.33
  j_90561              JUNCTION     0.04     0.18    -0.20     0  01:46        0.18
  j_90562              JUNCTION     0.07     0.25    -0.20     0  01:46        0.24
  j_90563              JUNCTION     0.13     0.46    -0.24     0  01:45        0.46
  j_90564              JUNCTION     0.17     0.57    -0.24     0  01:45        0.56
  j_90565              JUNCTION     0.02     0.10    -0.24     0  01:45        0.10
  j_90566              JUNCTION     0.01     0.07    -0.13     0  01:39        0.07
  j_90567              JUNCTION     0.01     0.07     0.10     0  01:40        0.07
  j_90568              JUNCTION     0.21     0.63    -0.48     0  01:49        0.63
  j_90569              JUNCTION     0.05     0.16    -0.16     0  01:40        0.16
  j_90570              JUNCTION     0.01     0.05    -0.03     0  01:40        0.05
  j_90571              JUNCTION     0.04     0.18    -0.25     0  01:46        0.18
  j_90572              JUNCTION     0.19     0.61    -0.25     0  01:46        0.61
  j_90573              JUNCTION     0.02     0.10    -0.24     0  01:45        0.10
  j_90574              JUNCTION     0.17     0.57    -0.23     0  01:46        0.57
  j_90575              JUNCTION     0.22     0.65    -0.26     0  01:46        0.65
  j_90576              JUNCTION     0.19     0.61    -0.31     0  01:47        0.60
  j_90577              JUNCTION     0.20     0.63    -0.35     0  01:48        0.62
  j_90578              JUNCTION     0.19     0.60    -0.35     0  01:47        0.60
  j_90579              JUNCTION     0.15     0.53    -0.35     0  01:46        0.53
  j_90580              JUNCTION     0.02     0.08    -0.05     0  01:40        0.08
  j_90581              JUNCTION     0.02     0.11    -0.13     0  01:40        0.11
  j_90582              JUNCTION     0.02     0.11    -0.13     0  01:40        0.11
  j_90583              JUNCTION     0.02     0.11    -0.20     0  01:40        0.11
  j_90584              JUNCTION     0.03     0.14    -0.21     0  01:40        0.14
  j_90585              JUNCTION     0.18     0.58    -0.25     0  01:46        0.58
  j_90586              JUNCTION     0.18     0.59    -0.23     0  01:45        0.59
  j_90587              JUNCTION     0.17     0.57    -0.22     0  01:45        0.57
  j_90588              JUNCTION     0.03     0.14    -0.22     0  01:45        0.14
  j_90589              JUNCTION     0.02     0.09    -0.19     0  01:45        0.09
  j_90590              JUNCTION     0.02     0.08    -0.17     0  01:46        0.08
  j_90591              JUNCTION     0.12     0.46    -0.15     0  01:45        0.46
  j_90592              JUNCTION     0.14     0.49    -0.18     0  01:45        0.49
  j_90593              JUNCTION     0.17     0.58    -0.21     0  01:45        0.58
  j_90594              JUNCTION     0.13     0.49    -0.21     0  01:45        0.49
  j_90595              JUNCTION     0.03     0.14    -0.20     0  01:40        0.14
  j_90596              JUNCTION     0.02     0.12    -0.20     0  01:43        0.12
  j_90597              JUNCTION     0.03     0.14    -0.14     0  01:40        0.14
  j_90598              JUNCTION     0.02     0.10    -0.15     0  01:40        0.10
  j_90599              JUNCTION     0.04     0.16    -0.13     0  01:40        0.16
  j_90600              JUNCTION     0.02     0.11    -0.11     0  01:40        0.11
  j_90601              JUNCTION     0.02     0.09    -0.08     0  01:40        0.09
  j_90602              JUNCTION     0.03     0.13    -0.14     0  01:40        0.13
  j_90603              JUNCTION     0.03     0.13    -0.16     0  01:40        0.13
  j_90604              JUNCTION     0.04     0.18    -0.18     0  01:42        0.18
  j_90605              JUNCTION     0.07     0.28    -0.18     0  01:45        0.28
  j_90606              JUNCTION     0.08     0.27    -0.16     0  01:40        0.26
  j_90607              JUNCTION     0.05     0.22    -0.16     0  01:40        0.22
  j_90608              JUNCTION     0.04     0.18    -0.16     0  01:40        0.18
  j_90609              JUNCTION     0.01     0.06    -0.11     0  01:40        0.06
  j_90610              JUNCTION     0.03     0.11    -0.11     0  01:40        0.11
  j_90611              JUNCTION     0.03     0.12    -0.15     0  01:40        0.12
  j_90612              JUNCTION     0.02     0.11    -0.10     0  01:40        0.11
  j_90613              JUNCTION     0.01     0.07    -0.03     0  01:40        0.07
  j_90615              JUNCTION     0.02     0.10    -0.19     0  01:37        0.10
  j_90616              JUNCTION     0.02     0.14    -0.18     0  01:40        0.14
  j_90617              JUNCTION     0.01     0.07    -0.16     0  01:40        0.07
  j_90618              JUNCTION     0.03     0.15    -0.22     0  01:40        0.15
  j_90619              JUNCTION     0.21     0.63    -0.37     0  01:48        0.63
  j_90620              JUNCTION     0.24     0.69    -0.36     0  01:48        0.69
  j_90621              JUNCTION     0.21     0.63    -0.35     0  01:49        0.63
  j_90623              JUNCTION     0.17     0.56    -0.34     0  01:49        0.56
  j_90624              JUNCTION     0.11     0.45    -0.34     0  01:48        0.45
  j_90625              JUNCTION     0.09     0.38    -0.32     0  01:49        0.38
  j_90626              JUNCTION     0.14     0.49    -0.33     0  01:48        0.49
  j_90627              JUNCTION     0.17     0.55    -0.33     0  01:48        0.55
  j_90628              JUNCTION     0.03     0.17    -0.24     0  01:40        0.17
  j_90629              JUNCTION     0.02     0.13    -0.22     0  01:40        0.13
  j_90630              JUNCTION     0.02     0.11    -0.08     0  01:40        0.11
  j_90631              JUNCTION     0.03     0.16    -0.26     0  01:40        0.16
  j_90632              JUNCTION     0.04     0.17    -0.28     0  01:40        0.17
  j_90633              JUNCTION     0.04     0.17    -0.31     0  01:50        0.17
  j_90634              JUNCTION     0.19     0.57    -0.31     0  01:49        0.57
  j_90635              JUNCTION     0.10     0.39    -0.31     0  01:49        0.39
  j_90636              JUNCTION     0.07     0.26    -0.31     0  01:50        0.26
  j_90637              JUNCTION     0.11     0.41    -0.30     0  01:50        0.41
  j_90638              JUNCTION     0.05     0.23    -0.25     0  01:40        0.22
  j_90639              JUNCTION     0.04     0.18    -0.22     0  01:40        0.18
  j_90640              JUNCTION     0.02     0.09    -0.20     0  01:40        0.09
  j_90641              JUNCTION     0.14     0.49    -0.35     0  01:47        0.49
  j_90642              JUNCTION     0.09     0.38    -0.35     0  01:46        0.38
  j_90643              JUNCTION     0.09     0.37    -0.35     0  01:46        0.36
  j_90644              JUNCTION     0.02     0.10    -0.05     0  01:40        0.10
  j_90645              JUNCTION     0.01     0.04     0.11     0  01:40        0.04
  j_90646              JUNCTION     0.04     0.14     0.04     0  01:40        0.14
  j_90647              JUNCTION     0.01     0.06     0.09     0  01:35        0.06
  j_90648              JUNCTION     0.02     0.12    -0.17     0  01:40        0.12
  j_90649              JUNCTION     0.03     0.12    -0.09     0  01:40        0.12
  j_90650              JUNCTION     0.04     0.20    -0.18     0  01:40        0.20
  j_90651              JUNCTION     0.03     0.13    -0.31     0  01:50        0.13
  j_90652              JUNCTION     0.03     0.14    -0.28     0  01:40        0.14
  j_90653              JUNCTION     0.01     0.06    -0.18     0  01:40        0.06
  j_90654              JUNCTION     0.10     0.37    -0.23     0  01:46        0.37
  j_90655              JUNCTION     0.13     0.41    -0.25     0  01:46        0.41
  j_90656              JUNCTION     0.13     0.42    -0.27     0  01:47        0.42
  j_90657              JUNCTION     0.01     0.06     0.29     0  01:40        0.06
  j_90658              JUNCTION     0.02     0.09     0.22     0  01:40        0.09
  j_90659              JUNCTION     0.02     0.10     0.12     0  01:40        0.10
  j_90662              JUNCTION     0.02     0.08    -0.24     0  01:40        0.08
  j_90663              JUNCTION     0.04     0.20    -0.23     0  01:45        0.20
  j_90664              JUNCTION     0.02     0.10    -0.17     0  01:40        0.10
  j_90665              JUNCTION     0.20     0.61    -0.36     0  01:48        0.61
  j_90669              JUNCTION     0.09     0.28     0.05     0  01:41        0.28
  j_90670              JUNCTION     0.10     0.30     0.05     0  01:40        0.30
  j_90671              JUNCTION     0.10     0.31     0.05     0  01:40        0.31
  j_90672              JUNCTION     0.06     0.26    -0.20     0  01:45        0.26
  j_90673              JUNCTION     0.10     0.33    -0.20     0  01:45        0.33
  j_90674              JUNCTION     0.11     0.37    -0.23     0  01:45        0.37
  j_90675              JUNCTION     0.07     0.26     0.04     0  01:40        0.26
  j_90676              JUNCTION     0.09     0.29     0.05     0  01:40        0.29
  j_90677              JUNCTION     0.12     0.34     0.05     0  01:40        0.34
  j_90678              JUNCTION     0.03     0.15     0.05     0  01:40        0.15
  j_90679              JUNCTION     0.02     0.08     0.06     0  01:40        0.08
  j_90680              JUNCTION     0.07     0.28    -0.02     0  01:40        0.27
  j_90681              JUNCTION     0.09     0.29    -0.09     0  01:40        0.29
  j_90682              JUNCTION     0.01     0.04     0.01     0  01:40        0.04
  j_90683              JUNCTION     0.08     0.29    -0.16     0  01:45        0.29
  j_90684              JUNCTION     0.04     0.20    -0.16     0  01:45        0.20
  j_90685              JUNCTION     0.01     0.05     0.16     0  01:40        0.05
  j_90686              JUNCTION     0.05     0.24    -0.16     0  01:44        0.24
  j_90688              JUNCTION     0.01     0.05     0.50     0  01:40        0.05
  j_90689              JUNCTION     0.03     0.12    -0.18     0  01:40        0.12
  j_90690              JUNCTION     0.02     0.11    -0.14     0  01:40        0.11
  j_90691              JUNCTION     0.01     0.07     0.17     0  01:40        0.07
  j_90692              JUNCTION     0.01     0.04     0.24     0  01:40        0.04
  j_90693              JUNCTION     0.01     0.03     0.06     0  01:40        0.03
  j_90694              JUNCTION     0.01     0.06     0.12     0  01:40        0.06
  j_90695              JUNCTION     0.01     0.05     0.55     0  01:40        0.05
  j_90696              JUNCTION     0.01     0.07     0.07     0  01:40        0.07
  j_90697              JUNCTION     0.02     0.09     0.02     0  01:40        0.09
  j_90698              JUNCTION     0.02     0.10    -0.02     0  01:40        0.10
  j_90699              JUNCTION     0.02     0.11    -0.07     0  01:40        0.10
  j_90700              JUNCTION     0.01     0.03     0.53     0  01:40        0.03
  j_90701              JUNCTION     0.01     0.03     0.53     0  01:40        0.03
  j_90702              JUNCTION     0.01     0.03     0.53     0  01:40        0.03
  j_90703              JUNCTION     0.08     0.30    -0.18     0  01:45        0.30
  j_90704              JUNCTION     0.02     0.10    -0.12     0  01:40        0.10
  j_90705              JUNCTION     0.02     0.09    -0.17     0  01:46        0.08
  j_90706              JUNCTION     0.10     0.40    -0.14     0  01:45        0.40
  j_90707              JUNCTION     0.05     0.24    -0.14     0  01:45        0.24
  j_90708              JUNCTION     0.02     0.08    -0.03     0  01:39        0.08
  j_90709              JUNCTION     0.02     0.10    -0.10     0  01:40        0.10
  j_90710              JUNCTION     0.02     0.08     0.03     0  01:40        0.08
  j_90724              JUNCTION     0.10     0.31     0.05     0  01:40        0.31
  j_90725              JUNCTION     0.01     0.06     0.06     0  01:41        0.05
  j_90726              JUNCTION     0.01     0.03     0.08     0  01:35        0.03
  j_90727              JUNCTION     0.01     0.03     0.13     0  01:35        0.03
  j_90728              JUNCTION     0.01     0.06     0.12     0  01:35        0.06
  j_90729              JUNCTION     0.01     0.04     0.27     0  01:35        0.04
  j_90730              JUNCTION     0.03     0.14     0.06     0  01:41        0.13
  j_90731              JUNCTION     0.01     0.06     0.16     0  01:35        0.06
  j_90732              JUNCTION     0.01     0.03     0.18     0  01:35        0.03
  j_90733              JUNCTION     0.04     0.19     0.05     0  01:41        0.19
  j_91272              JUNCTION     0.00     0.00     0.17     0  00:00        0.00
  j_91273              JUNCTION     0.00     0.00     0.47     0  00:00        0.00
  j_91274              JUNCTION     0.00     0.00     0.23     0  00:00        0.00
  j_91275              JUNCTION     0.00     0.00     0.47     0  00:00        0.00
  j_91276              JUNCTION     0.00     0.00     0.28     0  00:00        0.00
  j_91277              JUNCTION     0.00     0.00     0.51     0  00:00        0.00
  j_91278              JUNCTION     0.00     0.00     0.35     0  00:00        0.00
  j_91279              JUNCTION     0.00     0.00     0.50     0  00:00        0.00
  j_91292              JUNCTION     0.00     0.00    -0.01     0  00:00        0.00
  j_91293              JUNCTION     0.00     0.00    -0.23     0  01:42        0.00
  j_91294              JUNCTION     0.00     0.00     0.31     0  00:00        0.00
  j_90552              OUTFALL      0.00     0.00    -1.29     0  00:00        0.00
  j_90431              OUTFALL      0.03     0.12    -1.49     0  01:45        0.12
  
  
  *******************
  Node Inflow Summary
  *******************
  
  -------------------------------------------------------------------------------------------------
                                  Maximum  Maximum                  Lateral       Total        Flow
                                  Lateral    Total  Time of Max      Inflow      Inflow     Balance
                                   Inflow   Inflow   Occurrence      Volume      Volume       Error
  Node                 Type           CMS      CMS  days hr:min    10^6 ltr    10^6 ltr     Percent
  -------------------------------------------------------------------------------------------------
  j_9006F              JUNCTION     0.002    0.005     0  01:39     0.00211     0.00233       0.000
  j_90334              JUNCTION     0.007    0.007     0  01:35     0.00915     0.00915       0.000
  j_90335              JUNCTION     0.011    0.011     0  01:40     0.00928     0.00928       0.000
  j_90336              JUNCTION     0.002    0.007     0  01:40     0.00216      0.0088       0.000
  j_90363              JUNCTION     0.012    0.012     0  01:40      0.0104      0.0104       0.000
  j_90364              JUNCTION     0.003    0.022     0  01:39     0.00401      0.0243       0.074
  j_90365              JUNCTION     0.001    0.001     0  01:37     0.00076    0.000902       6.359
  j_90366              JUNCTION     0.004    0.004     0  01:40     0.00385     0.00385       0.000
  j_90367              JUNCTION     0.004    0.028     0  01:40     0.00421      0.0323      -0.026
  j_90368              JUNCTION     0.000    0.001     0  01:38           0    7.32e-05       2.289
  j_90369              JUNCTION     0.009    0.009     0  01:40      0.0093      0.0093       0.000
  j_90370              JUNCTION     0.004    0.023     0  01:37     0.00375      0.0223      -0.249
  j_90371              JUNCTION     0.005    0.057     0  01:40     0.00445      0.0713       0.021
  j_90372              JUNCTION     0.002    0.002     0  01:40     0.00257     0.00257       0.000
  j_90373              JUNCTION     0.004    0.012     0  01:39     0.00282      0.0123      -0.206
  j_90374              JUNCTION     0.000    0.001     0  01:40           0    0.000104       0.000
  j_90375              JUNCTION     0.005    0.008     0  01:40     0.00408     0.00707      -0.016
  j_90376              JUNCTION     0.001    0.003     0  01:40    0.000772       0.003       0.000
  j_90377              JUNCTION     0.004    0.007     0  01:40     0.00344     0.00645      -0.527
  j_90378              JUNCTION     0.004    0.011     0  01:40     0.00403      0.0109       0.000
  j_90379              JUNCTION     0.006    0.006     0  01:40     0.00689     0.00689      -0.279
  j_90380              JUNCTION     0.007    0.007     0  01:40      0.0076      0.0076       0.000
  j_90381              JUNCTION     0.004    0.011     0  01:40     0.00458      0.0122       0.670
  j_90382              JUNCTION     0.005    0.121     0  01:41      0.0052       0.179      -0.030
  j_90383              JUNCTION     0.004    0.110     0  01:41     0.00429       0.161       0.003
  j_90384              JUNCTION     0.002    0.012     0  01:39     0.00289      0.0132       0.177
  j_90385              JUNCTION     0.004    0.010     0  01:40      0.0033      0.0103       0.099
  j_90386              JUNCTION     0.006    0.006     0  01:40     0.00698     0.00698      -0.186
  j_90387              JUNCTION     0.004    0.004     0  01:40     0.00419     0.00419       0.000
  j_90388              JUNCTION     0.003    0.007     0  01:40     0.00256     0.00678       2.450
  j_90389              JUNCTION     0.003    0.081     0  01:40     0.00351       0.111       0.000
  j_90390              JUNCTION     0.002    0.061     0  01:40     0.00206        0.08      -0.013
  j_90391              JUNCTION     0.003    0.019     0  01:40     0.00338      0.0275       0.025
  j_90392              JUNCTION     0.005    0.018     0  01:40     0.00585      0.0242       0.188
  j_90393              JUNCTION     0.008    0.014     0  01:40     0.00953      0.0183      -0.127
  j_90394              JUNCTION     0.002    0.006     0  01:40     0.00298     0.00664       0.032
  j_90395              JUNCTION     0.003    0.004     0  01:40     0.00277     0.00366      -0.140
  j_90396              JUNCTION     0.001    0.001     0  01:38    0.000894    0.000894       0.925
  j_90397              JUNCTION     0.003    0.101     0  01:40       0.004       0.144       0.003
  j_90398              JUNCTION     0.004    0.023     0  01:39     0.00458      0.0287       0.014
  j_90399              JUNCTION     0.004    0.006     0  01:40     0.00405     0.00593       0.024
  j_90400              JUNCTION     0.003    0.003     0  01:37     0.00269     0.00321      -0.276
  j_90401              JUNCTION     0.004    0.005     0  01:40     0.00377      0.0051      -0.148
  j_90402              JUNCTION     0.004    0.005     0  01:40     0.00381      0.0044       0.000
  j_90403              JUNCTION     0.002    0.002     0  01:40     0.00252     0.00252      -0.335
  j_90404              JUNCTION     0.004    0.005     0  01:40     0.00416     0.00559       0.033
  j_90405              JUNCTION     0.004    0.016     0  01:39     0.00458      0.0182       0.021
  j_90406              JUNCTION     0.004    0.012     0  01:40     0.00453      0.0136      -0.008
  j_90407              JUNCTION     0.003    0.003     0  01:40      0.0035     0.00351      -0.356
  j_90408              JUNCTION     0.008    0.008     0  01:40     0.00815     0.00815      -0.154
  j_90427              JUNCTION     0.009    0.017     0  01:39     0.00888      0.0196       0.000
  j_90428              JUNCTION     0.005    0.010     0  01:40     0.00537      0.0107      -0.133
  j_90430              JUNCTION     0.003    0.398     0  01:45     0.00241       0.637       0.008
  j_90433              JUNCTION     0.001    0.001     0  01:40     0.00148     0.00148       0.000
  j_90434              JUNCTION     0.003    0.008     0  01:39     0.00263     0.00786       6.244
  j_90435              JUNCTION     0.005    0.010     0  01:40     0.00453      0.0119       0.134
  j_90436              JUNCTION     0.003    0.029     0  01:40     0.00231      0.0335       0.000
  j_90437              JUNCTION     0.006    0.397     0  01:45     0.00559       0.634       0.057
  j_90438              JUNCTION     0.005    0.365     0  01:45     0.00479       0.584       0.034
  j_90439              JUNCTION     0.003    0.010     0  01:40     0.00276      0.0109       0.000
  j_90440              JUNCTION     0.008    0.008     0  01:40     0.00873     0.00873       0.178
  j_90441              JUNCTION     0.004    0.004     0  01:40     0.00478     0.00478      -0.062
  j_90442              JUNCTION     0.009    0.086     0  01:40      0.0117       0.135       0.117
  j_90443              JUNCTION     0.012    0.356     0  01:45      0.0145       0.567       0.002
  j_90444              JUNCTION     0.005    0.151     0  01:43      0.0046       0.234       0.016
  j_90445              JUNCTION     0.004    0.015     0  01:40     0.00472      0.0156       0.005
  j_90446              JUNCTION     0.004    0.010     0  01:40     0.00404      0.0109       0.132
[...]
  c_905511                1.00   0.39  0.00  0.00  0.00  0.00  0.00  0.61  0.00  0.00
  c_905521                1.00   0.39  0.00  0.00  0.00  0.00  0.00  0.61  0.00  0.00
  c_905541                1.00   0.39  0.29  0.00  0.31  0.00  0.01  0.00  0.01  0.00
  c_905551                1.00   0.39  0.00  0.00  0.19  0.00  0.00  0.41  0.00  0.00
  c_905561                1.00   0.39  0.00  0.00  0.61  0.00  0.00  0.00  0.00  0.00
  c_905571                1.00   0.39  0.00  0.00  0.61  0.00  0.00  0.00  0.00  0.00
  c_905572                1.00   0.39  0.00  0.00  0.61  0.00  0.00  0.00  0.07  0.00
  c_905581                1.00   0.40  0.00  0.00  0.28  0.00  0.00  0.32  0.21  0.00
  c_905591                1.00   0.39  0.00  0.00  0.61  0.00  0.00  0.00  0.31  0.00
  c_905601                1.00   0.39  0.01  0.00  0.60  0.00  0.00  0.00  0.07  0.00
  c_905602                1.00   0.40  0.15  0.00  0.45  0.00  0.00  0.00  0.54  0.00
  c_905611                1.00   0.39  0.07  0.00  0.54  0.00  0.00  0.00  0.27  0.00
  c_905621                1.00   0.39  0.07  0.00  0.54  0.00  0.00  0.00  0.37  0.00
  c_905622                1.00   0.39  0.11  0.00  0.50  0.00  0.00  0.00  0.46  0.00
  c_905631                1.00   0.40  0.00  0.00  0.25  0.00  0.00  0.36  0.03  0.00
  c_905632                1.00   0.39  0.00  0.00  0.61  0.00  0.00  0.00  0.00  0.00
  c_905641                1.00   0.39  0.00  0.00  0.48  0.00  0.00  0.12  0.09  0.00
  c_905651                1.00   0.39  0.00  0.00  0.25  0.00  0.00  0.36  0.11  0.00
  c_905661                1.00   0.39  0.00  0.00  0.16  0.00  0.00  0.45  0.03  0.00
  c_905681                1.00   0.39  0.00  0.00  0.61  0.00  0.00  0.00  0.23  0.00
  c_905682                1.00   0.39  0.00  0.00  0.00  0.00  0.00  0.61  0.00  0.00
  c_905691                1.00   0.39  0.25  0.00  0.36  0.00  0.00  0.00  0.57  0.00
  c_905701                1.00   0.39  0.00  0.00  0.00  0.00  0.00  0.61  0.00  0.00
  c_905711                1.00   0.40  0.00  0.00  0.35  0.00  0.00  0.25  0.23  0.00
  c_905721                1.00   0.39  0.00  0.00  0.56  0.00  0.00  0.05  0.02  0.00
  c_905722                1.00   0.39  0.00  0.00  0.29  0.00  0.00  0.32  0.10  0.00
  c_905731                1.00   0.39  0.00  0.00  0.34  0.00  0.00  0.27  0.00  0.00
  c_905732                1.00   0.39  0.00  0.00  0.27  0.00  0.00  0.34  0.21  0.00
  c_905741                1.00   0.39  0.00  0.00  0.61  0.00  0.00  0.00  0.19  0.00
  c_905751                1.00   0.39  0.01  0.00  0.60  0.00  0.00  0.00  0.17  0.00
  c_905752                1.00   0.39  0.00  0.00  0.61  0.00  0.00  0.00  0.02  0.00
  c_905761                1.00   0.39  0.01  0.00  0.60  0.00  0.00  0.00  0.09  0.00
  c_905771                1.00   0.39  0.00  0.00  0.61  0.00  0.00  0.00  0.11  0.00
  c_905781                1.00   0.39  0.00  0.00  0.61  0.00  0.00  0.00  0.04  0.00
  c_905791                1.00   0.39  0.00  0.00  0.61  0.00  0.00  0.00  0.15  0.00
  c_905811                1.00   0.45  0.18  0.00  0.37  0.00  0.00  0.00  0.56  0.00
  c_905821                1.00   0.39  0.00  0.00  0.61  0.00  0.00  0.00  0.00  0.00
  c_905831                1.00   0.39  0.25  0.00  0.36  0.00  0.00  0.00  0.57  0.00
  c_905841                1.00   0.39  0.06  0.00  0.55  0.00  0.00  0.00  0.54  0.00
  c_905851                1.00   0.39  0.00  0.00  0.61  0.00  0.00  0.00  0.10  0.00
  c_905852                1.00   0.39  0.00  0.00  0.27  0.00  0.00  0.34  0.22  0.00
  c_905861                1.00   0.39  0.00  0.00  0.61  0.00  0.00  0.00  0.00  0.00
  c_905862                1.00   0.39  0.00  0.00  0.24  0.00  0.00  0.37  0.10  0.00
  c_905871                1.00   0.39  0.00  0.00  0.61  0.00  0.00  0.00  0.10  0.00
  c_905881                1.00   0.39  0.00  0.00  0.31  0.00  0.00  0.30  0.14  0.00
  c_905891                1.00   0.39  0.21  0.00  0.40  0.00  0.00  0.00  0.44  0.00
  c_905892                1.00   0.60  0.09  0.00  0.31  0.00  0.00  0.00  0.43  0.00
  c_905901                1.00   0.49  0.10  0.00  0.41  0.00  0.00  0.00  0.49  0.00
  c_905902                1.00   0.59  0.00  0.00  0.30  0.00  0.00  0.11  0.00  0.00
  c_905921                1.00   0.39  0.00  0.00  0.61  0.00  0.00  0.00  0.20  0.00
  c_905931                1.00   0.39  0.00  0.00  0.61  0.00  0.00  0.00  0.00  0.00
  c_905941                1.00   0.39  0.00  0.00  0.61  0.00  0.00  0.00  0.21  0.00
  c_905942                1.00   0.39  0.01  0.00  0.39  0.00  0.21  0.00  0.00  0.00
  c_905951                1.00   0.39  0.00  0.00  0.25  0.00  0.00  0.36  0.11  0.00
  c_905961                1.00   0.39  0.00  0.00  0.26  0.00  0.00  0.35  0.12  0.00
  c_905971                1.00   0.39  0.05  0.00  0.56  0.00  0.00  0.00  0.37  0.00
  c_905981                1.00   0.39  0.21  0.00  0.40  0.00  0.00  0.00  0.49  0.00
  c_905982                1.00   0.44  0.16  0.00  0.40  0.00  0.00  0.00  0.32  0.00
  c_905991                1.00   0.39  0.00  0.00  0.61  0.00  0.00  0.00  0.00  0.00
  c_906001                1.00   0.44  0.16  0.00  0.40  0.00  0.00  0.00  0.51  0.00
  c_906011                1.00   0.60  0.03  0.00  0.37  0.00  0.00  0.00  0.49  0.00
  c_906031                1.00   0.39  0.00  0.00  0.35  0.00  0.00  0.26  0.00  0.00
  c_906041                1.00   0.39  0.28  0.00  0.33  0.00  0.00  0.00  0.51  0.00
  c_906051                1.00   0.39  0.00  0.00  0.61  0.00  0.00  0.00  0.38  0.00
  c_906052                1.00   0.39  0.00  0.00  0.31  0.00  0.00  0.30  0.08  0.00
  c_906061                1.00   0.39  0.01  0.00  0.60  0.00  0.00  0.00  0.32  0.00
  c_906071                1.00   0.39  0.00  0.00  0.61  0.00  0.00  0.00  0.27  0.00
  c_906081                1.00   0.39  0.00  0.00  0.61  0.00  0.00  0.00  0.30  0.00
  c_906082                1.00   0.39  0.00  0.00  0.61  0.00  0.00  0.00  0.38  0.00
  c_906091                1.00   0.39  0.15  0.00  0.46  0.00  0.00  0.00  0.57  0.00
  c_906101                1.00   0.39  0.15  0.00  0.46  0.00  0.00  0.00  0.44  0.00
  c_906111                1.00   0.39  0.00  0.00  0.44  0.00  0.00  0.17  0.32  0.00
  c_906112                1.00   0.39  0.00  0.00  0.36  0.00  0.00  0.25  0.01  0.00
  c_906121                1.00   0.39  0.19  0.00  0.42  0.00  0.00  0.00  0.55  0.00
  c_906131                1.00   0.58  0.04  0.00  0.38  0.00  0.00  0.00  0.56  0.00
  c_906132                1.00   0.61  0.01  0.00  0.38  0.00  0.00  0.00  0.57  0.00
  c_906151                1.00   0.39  0.00  0.00  0.24  0.00  0.00  0.37  0.12  0.00
  c_906161                1.00   0.39  0.19  0.00  0.42  0.00  0.00  0.00  0.57  0.00
  c_906171                1.00   0.58  0.02  0.00  0.40  0.00  0.00  0.00  0.57  0.00
  c_906181                1.00   0.39  0.21  0.00  0.40  0.00  0.00  0.00  0.57  0.00
  c_906191                1.00   0.39  0.00  0.00  0.61  0.00  0.00  0.00  0.19  0.00
  c_906192                1.00   0.39  0.00  0.00  0.61  0.00  0.00  0.00  0.00  0.00
  c_906201                1.00   0.39  0.00  0.00  0.60  0.00  0.00  0.01  0.00  0.00
  c_906202                1.00   0.39  0.00  0.00  0.15  0.00  0.00  0.46  0.08  0.00
  c_906211                1.00   0.39  0.00  0.00  0.61  0.00  0.00  0.00  0.02  0.00
  c_906231                1.00   0.39  0.00  0.00  0.61  0.00  0.00  0.00  0.15  0.00
  c_906241                1.00   0.39  0.02  0.00  0.57  0.00  0.00  0.01  0.18  0.00
  c_906261                1.00   0.40  0.02  0.00  0.57  0.00  0.00  0.00  0.27  0.00
  c_906271                1.00   0.40  0.00  0.00  0.57  0.00  0.00  0.03  0.08  0.00
  c_906272                1.00   0.39  0.00  0.00  0.61  0.00  0.00  0.00  0.00  0.00
  c_906281                1.00   0.39  0.00  0.00  0.21  0.00  0.00  0.40  0.16  0.00
  c_906291                1.00   0.39  0.18  0.00  0.43  0.00  0.00  0.00  0.47  0.00
  c_906301                1.00   0.39  0.00  0.00  0.00  0.00  0.00  0.61  0.00  0.00
  c_906321                1.00   0.57  0.43  0.00  0.00  0.00  0.00  0.00  0.00  0.00
  c_906322                1.00   0.39  0.00  0.00  0.30  0.00  0.00  0.31  0.00  0.00
  c_906331                1.00   0.39  0.00  0.00  0.61  0.00  0.00  0.00  0.22  0.00
  c_906341                1.00   0.39  0.00  0.00  0.28  0.00  0.00  0.33  0.08  0.00
  c_906342                1.00   0.40  0.01  0.00  0.59  0.00  0.00  0.00  0.00  0.00
  c_906351                1.00   0.43  0.16  0.00  0.41  0.00  0.00  0.00  0.29  0.00
  c_906352                1.00   0.39  0.00  0.00  0.40  0.00  0.00  0.21  0.01  0.00
  c_906361                1.00   0.40  0.01  0.00  0.44  0.00  0.00  0.15  0.20  0.00
  c_906371                1.00   0.39  0.00  0.00  0.61  0.00  0.00  0.00  0.31  0.00
  c_906381                1.00   0.39  0.00  0.00  0.23  0.00  0.00  0.37  0.05  0.00
  c_906391                1.00   0.39  0.00  0.00  0.61  0.00  0.00  0.00  0.47  0.00
  c_906401                1.00   0.39  0.43  0.00  0.02  0.00  0.16  0.00  0.00  0.00
  c_906402                1.00   0.39  0.00  0.00  0.25  0.00  0.00  0.36  0.11  0.00
  c_906411                1.00   0.39  0.00  0.00  0.61  0.00  0.00  0.00  0.11  0.00
  c_906421                1.00   0.39  0.00  0.00  0.61  0.00  0.00  0.00  0.28  0.00
  c_906431                1.00   0.39  0.01  0.00  0.60  0.00  0.00  0.00  0.16  0.00
  c_906441                1.00   0.39  0.00  0.00  0.00  0.00  0.00  0.61  0.00  0.00
  c_906461                1.00   0.39  0.00  0.00  0.61  0.00  0.00  0.00  0.57  0.00
  c_906471                1.00   0.54  0.03  0.00  0.41  0.00  0.00  0.02  0.55  0.00
  c_906481                1.00   0.39  0.19  0.00  0.42  0.00  0.00  0.00  0.57  0.00
  c_906491                1.00   0.68  0.01  0.00  0.29  0.00  0.00  0.02  0.05  0.00
  c_906492                1.00   0.40  0.00  0.00  0.00  0.00  0.00  0.60  0.00  0.00
  c_906501                1.00   0.39  0.00  0.00  0.61  0.00  0.00  0.00  0.57  0.00
  c_906511                1.00   0.39  0.00  0.00  0.61  0.00  0.00  0.00  0.48  0.00
  c_906521                1.00   0.39  0.05  0.00  0.56  0.00  0.00  0.00  0.15  0.00
  c_906531                1.00   0.44  0.14  0.00  0.42  0.00  0.00  0.00  0.56  0.00
  c_906541                1.00   0.39  0.01  0.00  0.60  0.00  0.00  0.00  0.22  0.00
  c_906561                1.00   0.39  0.00  0.00  0.51  0.00  0.09  0.00  0.00  0.00
  c_906562                1.00   0.39  0.00  0.00  0.61  0.00  0.00  0.00  0.00  0.00
  c_906563                1.00   0.39  0.00  0.00  0.23  0.00  0.00  0.38  0.13  0.00
  c_906581                1.00   0.57  0.05  0.00  0.38  0.00  0.00  0.00  0.56  0.00
  c_906591                1.00   0.39  0.00  0.00  0.00  0.00  0.00  0.61  0.00  0.00
  c_906592                1.00   0.39  0.18  0.00  0.43  0.00  0.00  0.00  0.56  0.00
  c_906621                1.00   0.39  0.00  0.00  0.00  0.00  0.00  0.61  0.00  0.00
  c_906622                1.00   0.39  0.00  0.00  0.40  0.21  0.00  0.00  0.36  0.00
  c_906631                1.00   0.39  0.00  0.00  0.21  0.00  0.00  0.40  0.00  0.00
  c_906641                1.00   0.39  0.00  0.00  0.27  0.00  0.00  0.34  0.00  0.00
  c_906651                1.00   0.39  0.00  0.00  0.59  0.00  0.00  0.02  0.00  0.00
  c_906701                1.00   0.39  0.00  0.00  0.61  0.00  0.00  0.00  0.00  0.00
  c_906731                1.00   0.39  0.00  0.00  0.40  0.00  0.00  0.20  0.00  0.00
  c_906741                1.00   0.39  0.00  0.00  0.61  0.00  0.00  0.00  0.00  0.00
  c_906742                1.00   0.40  0.00  0.00  0.60  0.00  0.00  0.01  0.11  0.00
  c_906751                1.00   0.42  0.04  0.00  0.54  0.00  0.00  0.00  0.20  0.00
  c_906761                1.00   0.39  0.00  0.00  0.61  0.00  0.00  0.00  0.01  0.00
  c_906771                1.00   0.39  0.00  0.00  0.60  0.00  0.00  0.01  0.00  0.00
  c_906772                1.00   0.39  0.00  0.00  0.60  0.00  0.00  0.01  0.00  0.00
  c_906781                1.00   0.39  0.04  0.00  0.57  0.00  0.00  0.00  0.37  0.00
  c_906791                1.00   0.43  0.16  0.00  0.41  0.00  0.00  0.00  0.42  0.00
  c_906801                1.00   0.40  0.00  0.00  0.43  0.00  0.00  0.18  0.08  0.00
  c_906811                1.00   0.39  0.00  0.00  0.60  0.00  0.00  0.01  0.33  0.00
  c_906821                1.00   0.39  0.08  0.00  0.53  0.00  0.00  0.00  0.57  0.00
  c_906831                1.00   0.40  0.00  0.00  0.24  0.00  0.00  0.36  0.00  0.00
  c_906832                1.00   0.39  0.00  0.00  0.61  0.00  0.00  0.00  0.37  0.00
  c_906841                1.00   0.39  0.00  0.00  0.32  0.00  0.00  0.29  0.02  0.00
  c_906851                1.00   0.39  0.00  0.00  0.00  0.00  0.00  0.61  0.00  0.00
  c_906861                1.00   0.39  0.00  0.00  0.61  0.00  0.00  0.00  0.27  0.00
  c_906862                1.00   0.39  0.13  0.00  0.48  0.00  0.00  0.00  0.33  0.00
  c_906891                1.00   0.39  0.00  0.00  0.00  0.00  0.00  0.61  0.00  0.00
  c_906892                1.00   0.39  0.00  0.00  0.00  0.00  0.00  0.61  0.00  0.00
  c_906901                1.00   0.39  0.00  0.00  0.61  0.00  0.00  0.00  0.50  0.00
  c_906911                1.00   0.39  0.00  0.00  0.00  0.00  0.00  0.61  0.00  0.00
  c_906921                1.00   0.39  0.06  0.00  0.55  0.00  0.00  0.00  0.57  0.00
  c_906931                1.00   0.45  0.55  0.00  0.00  0.00  0.00  0.00  0.00  0.00
  c_906932                1.00   0.39  0.00  0.00  0.00  0.00  0.00  0.61  0.00  0.00
  c_906941                1.00   0.39  0.61  0.00  0.00  0.00  0.00  0.00  0.00  0.00
  c_906951                1.00   0.39  0.00  0.00  0.00  0.00  0.00  0.61  0.00  0.00
  c_906961                1.00   0.39  0.00  0.00  0.61  0.00  0.00  0.00  0.55  0.00
  c_906971                1.00   0.39  0.00  0.00  0.61  0.00  0.00  0.00  0.56  0.00
  c_906981                1.00   0.39  0.00  0.00  0.61  0.00  0.00  0.00  0.55  0.00
  c_906991                1.00   0.39  0.00  0.00  0.61  0.00  0.00  0.00  0.52  0.00
  c_906992                1.00   0.39  0.00  0.00  0.61  0.00  0.00  0.00  0.47  0.00
  c_907001                1.00   0.39  0.00  0.00  0.00  0.00  0.00  0.61  0.00  0.00
  c_907011                1.00   0.39  0.00  0.00  0.00  0.00  0.00  0.61  0.00  0.00
  c_907021                1.00   0.39  0.00  0.00  0.00  0.00  0.00  0.61  0.00  0.00
  c_907031                1.00   0.39  0.00  0.00  0.61  0.00  0.00  0.00  0.19  0.00
  c_907032                1.00   0.39  0.00  0.00  0.29  0.00  0.00  0.32  0.15  0.00
  c_907033                1.00   0.39  0.00  0.00  0.51  0.00  0.00  0.10  0.13  0.00
  c_907041                1.00   0.39  0.00  0.00  0.30  0.00  0.00  0.31  0.01  0.00
  c_907042                1.00   0.39  0.21  0.00  0.40  0.00  0.00  0.00  0.31  0.00
  c_907051                1.00   0.69  0.31  0.00  0.00  0.00  0.00  0.00  0.00  0.00
  c_907061                1.00   0.39  0.00  0.00  0.61  0.00  0.00  0.00  0.01  0.00
  c_907062                1.00   0.39  0.00  0.00  0.61  0.00  0.00  0.00  0.27  0.00
  c_907071                1.00   0.39  0.00  0.00  0.24  0.00  0.00  0.37  0.00  0.00
  c_907081                1.00   0.39  0.00  0.00  0.14  0.00  0.00  0.47  0.09  0.00
  c_907091                1.00   0.39  0.00  0.00  0.61  0.00  0.00  0.00  0.55  0.00
  c_907101                1.00   0.39  0.09  0.00  0.52  0.00  0.00  0.00  0.55  0.00
  c_907241                1.00   0.39  0.00  0.00  0.61  0.00  0.00  0.00  0.00  0.00
  c_907242                1.00   0.39  0.00  0.00  0.61  0.00  0.00  0.00  0.00  0.00
  c_907251                1.00   0.39  0.00  0.00  0.53  0.00  0.00  0.08  0.48  0.00
  c_907261                1.00   0.39  0.22  0.00  0.39  0.00  0.00  0.00  0.55  0.00
  c_907271                1.00   0.61  0.03  0.00  0.36  0.00  0.00  0.00  0.56  0.00
  c_907281                1.00   0.39  0.61  0.00  0.00  0.00  0.00  0.00  0.00  0.00
  c_907291                1.00   0.39  0.09  0.00  0.52  0.00  0.00  0.00  0.57  0.00
  c_907301                1.00   0.39  0.00  0.00  0.61  0.00  0.00  0.00  0.56  0.00
  c_907311                1.00   0.39  0.00  0.00  0.61  0.00  0.00  0.00  0.55  0.00
  c_907321                1.00   0.39  0.21  0.00  0.39  0.00  0.00  0.00  0.57  0.00
  c_907331                1.00   0.39  0.00  0.00  0.61  0.00  0.00  0.00  0.36  0.00
  c_907332                1.00   0.39  0.00  0.00  0.52  0.00  0.00  0.09  0.15  0.00
  c_912721                1.00   1.00  0.00  0.00  0.00  0.00  0.00  0.00  0.00  0.00
  c_912731                1.00   1.00  0.00  0.00  0.00  0.00  0.00  0.00  0.00  0.00
  c_912741                1.00   1.00  0.00  0.00  0.00  0.00  0.00  0.00  0.00  0.00
  c_912751                1.00   1.00  0.00  0.00  0.00  0.00  0.00  0.00  0.00  0.00
  c_912761                1.00   1.00  0.00  0.00  0.00  0.00  0.00  0.00  0.00  0.00
  c_912771                1.00   1.00  0.00  0.00  0.00  0.00  0.00  0.00  0.00  0.00
  c_912781                1.00   1.00  0.00  0.00  0.00  0.00  0.00  0.00  0.00  0.00
  c_912791                1.00   1.00  0.00  0.00  0.00  0.00  0.00  0.00  0.00  0.00
  c_912931                1.00   1.00  0.00  0.00  0.00  0.00  0.00  0.00  0.00  0.00
  c_912932                1.00   0.96  0.04  0.00  0.00  0.00  0.00  0.00  0.00  0.00
  c_912941                1.00   1.00  0.00  0.00  0.00  0.00  0.00  0.00  0.00  0.00
  
  
  *************************
  Conduit Surcharge Summary
  *************************
  
  ----------------------------------------------------------------------------
                                                           Hours        Hours 
                         --------- Hours Full --------   Above Full   Capacity
  Conduit                Both Ends  Upstream  Dnstream   Normal Flow   Limited
  ----------------------------------------------------------------------------
  c_903642                    0.01      0.01      0.01      0.23         0.01
  c_904421                    0.01      0.01      0.01      0.37         0.01
  c_904592                    0.01      0.01      0.01      0.06         0.01
  c_904951                    0.01      0.01      0.12      0.01         0.01
  c_904952                    0.35      0.35      0.36      0.01         0.01
  c_905571                    0.01      0.01      0.01      0.25         0.01
  c_905632                    0.01      0.01      0.01      0.78         0.01
  c_905741                    0.36      0.36      0.42      0.01         0.01
  c_905751                    0.39      0.39      0.58      0.01         0.01
  c_905861                    0.01      0.01      0.01      0.83         0.01
  c_905921                    0.10      0.10      0.23      0.01         0.01
  c_905931                    0.01      0.01      0.01      0.77         0.01
  c_905942                    0.07      0.07      0.23      0.52         0.01
  c_906201                    0.01      0.01      0.01      0.73         0.01
  c_906241                    0.01      0.01      0.34      0.01         0.01
  c_906261                    0.01      0.01      0.25      0.01         0.01
  c_906271                    0.25      0.25      0.30      0.01         0.01
  c_906322                    0.01      0.01      0.01      0.08         0.01
  c_906631                    0.01      0.01      0.01      0.07         0.01
  c_906651                    0.50      0.50      0.50      0.01         0.01
  c_906731                    0.14      0.14      0.14      0.07         0.02
  c_906741                    0.01      0.01      0.01      0.37         0.01
  c_906781                    0.01      0.01      0.24      0.01         0.01
  c_907061                    0.01      0.01      0.07      0.01         0.01
  c_907062                    0.01      0.01      0.10      0.01         0.01
  

  Analysis begun on:  Sun Jun 12 01:37:45 2022
  Analysis ended on:  Sun Jun 12 01:37:49 2022
  Total elapsed time: 00:00:04