
  EPA STORM WATER MANAGEMENT MODEL - VERSION 5.1 (Build 5.1.015)
  --------------------------------------------------------------

  WARNING 04: minimum elevation drop used for Conduit c_903642
  WARNING 04: minimum elevation drop used for Conduit c_903651
  WARNING 04: minimum elevation drop used for Conduit c_903672
  WARNING 04: minimum elevation drop used for Conduit c_905571
  WARNING 04: minimum elevation drop used for Conduit c_905632
  WARNING 04: minimum elevation drop used for Conduit c_905821
  WARNING 04: minimum elevation drop used for Conduit c_905861
  WARNING 04: minimum elevation drop used for Conduit c_905931
  WARNING 04: minimum elevation drop used for Conduit c_906201
  WARNING 04: minimum elevation drop used for Conduit c_906322
  WARNING 04: minimum elevation drop used for Conduit c_906631
  WARNING 04: minimum elevation drop used for Conduit c_906641
  WARNING 04: minimum elevation drop used for Conduit c_906651
  WARNING 04: minimum elevation drop used for Conduit c_906731
  WARNING 04: minimum elevation drop used for Conduit c_906741
  WARNING 04: minimum elevation drop used for Conduit c_907242
  
  *********************
  Rainfall File Summary
  *********************
  Station    First        Last         Recording   Periods    Periods    Periods
  ID         Date         Date         Frequency  w/Precip    Missing    Malfunc.
  -------------------------------------------------------------------------------
  R1         01/01/2019   01/01/2019       5 min        33          0          0
  R1         01/01/2019   01/01/2019       5 min        33          0          0
  R1         01/01/2019   01/01/2019       5 min        33          0          0

  
  *********************************************************
  NOTE: The summary statistics displayed in this report are
  based on results found at every computational time step,  
  not just on results from each reporting time step.
  *********************************************************
  
  ****************
  Analysis Options
  ****************
  Flow Units ............... CMS
  Process Models:
    Rainfall/Runoff ........ YES
    RDII ................... NO
    Snowmelt ............... NO
    Groundwater ............ NO
    Flow Routing ........... YES
    Ponding Allowed ........ NO
    Water Quality .......... NO
  Infiltration Method ...... HORTON
  Flow Routing Method ...... DYNWAVE
  Surcharge Method ......... EXTRAN
  Starting Date ............ 01/01/2019 00:00:00
  Ending Date .............. 01/01/2019 02:45:00
  Antecedent Dry Days ...... 0.0
  Report Time Step ......... 00:05:00
  Wet Time Step ............ 00:01:00
  Dry Time Step ............ 00:10:00
  Routing Time Step ........ 1.00 sec
  Variable Time Step ....... YES
  Maximum Trials ........... 12
  Number of Threads ........ 2
  Head Tolerance ........... 0.000200 m
  
  
  **************************        Volume         Depth
  Runoff Quantity Continuity     hectare-m            mm
  **************************     ---------       -------
  Total Precipitation ......         0.260         9.367
  Evaporation Loss .........         0.002         0.068
  Infiltration Loss ........         0.014         0.520
  Surface Runoff ...........         0.150         5.403
  Final Storage ............         0.099         3.567
  Continuity Error (%) .....        -2.042
  
  
  **************************        Volume        Volume
  Flow Routing Continuity        hectare-m      10^6 ltr
  **************************     ---------     ---------
  Dry Weather Inflow .......         0.000         0.000
  Wet Weather Inflow .......         0.150         1.499
  Groundwater Inflow .......         0.000         0.000
  RDII Inflow ..............         0.000         0.000
  External Inflow ..........         0.000         0.000
  External Outflow .........         0.149         1.486
  Flooding Loss ............         0.000         0.000
  Evaporation Loss .........         0.000         0.000
  Exfiltration Loss ........         0.000         0.000
  Initial Stored Volume ....         0.000         0.000
  Final Stored Volume ......         0.002         0.023
  Continuity Error (%) .....        -0.622
  
  
  *************************
  Highest Continuity Errors
  *************************
  Node j_90434 (6.30%)
  Node j_90638 (3.44%)
  Node j_90650 (3.36%)
  Node j_90670 (3.03%)
  Node j_90628 (2.81%)
  
  
  ***************************
  Time-Step Critical Elements
  ***************************
  Link c_904312 (22.45%)
  
  
  ********************************
  Highest Flow Instability Indexes
  ********************************
  All links are stable.
  
  
  *************************
  Routing Time Step Summary
  *************************
  Minimum Time Step           :     0.50 sec
  Average Time Step           :     0.95 sec
  Maximum Time Step           :     1.00 sec
  Percent in Steady State     :     3.03
  Average Iterations per Step :     2.07
  Percent Not Converging      :     0.43
  Time Step Frequencies       :
      1.000 -  0.871 sec      :    81.15 %
      0.871 -  0.758 sec      :     5.93 %
      0.758 -  0.660 sec      :    12.70 %
      0.660 -  0.574 sec      :     0.06 %
      0.574 -  0.500 sec      :     0.16 %
  
  
  ***************************
  Subcatchment Runoff Summary
  ***************************
  
  ------------------------------------------------------------------------------------------------------------------------------
                            Total      Total      Total      Total     Imperv       Perv      Total       Total     Peak  Runoff
                           Precip      Runon       Evap      Infil     Runoff     Runoff     Runoff      Runoff   Runoff   Coeff
  Subcatchment                 mm         mm         mm         mm         mm         mm         mm    10^6 ltr      CMS
  ------------------------------------------------------------------------------------------------------------------------------
  sub_9006F                  9.37       0.00       0.07       0.43       2.40       2.70       5.10        0.00     0.00   0.544
  sub_90334                  9.37       0.00       0.07       1.14       0.43       7.11       7.55        0.01     0.01   0.806
  sub_90335                  9.37       0.00       0.07       0.26       2.87       1.63       4.51        0.01     0.01   0.481
  sub_90336                  9.37       0.00       0.07       0.88       1.16       5.48       6.64        0.00     0.00   0.709
  sub_90363                  9.37       0.00       0.07       0.26       2.87       1.65       4.52        0.01     0.01   0.482
  sub_90364                  9.37       0.00       0.07       0.96       0.92       6.03       6.95        0.00     0.00   0.741
  sub_90365                  9.37       0.00       0.07       1.29       0.00       8.09       8.09        0.00     0.00   0.863
  sub_90366                  9.37       0.00       0.07       0.44       2.38       2.73       5.12        0.00     0.00   0.546
  sub_90367                  9.37       0.00       0.07       0.74       1.55       4.60       6.15        0.00     0.00   0.657
  sub_90369                  9.37       0.00       0.07       0.53       2.13       3.29       5.43        0.01     0.01   0.580
  sub_90370                  9.37       0.00       0.07       0.35       2.62       2.22       4.83        0.00     0.00   0.516
  sub_90371                  9.37       0.00       0.07       0.18       3.09       1.16       4.24        0.00     0.01   0.453
  sub_90372                  9.37       0.00       0.07       0.82       1.33       5.11       6.43        0.00     0.00   0.687
  sub_90373                  9.37       0.00       0.07       0.06       3.45       0.35       3.80        0.00     0.00   0.405
  sub_90375                  9.37       0.00       0.07       0.26       2.88       1.62       4.50        0.00     0.00   0.480
  sub_90376                  9.37       0.00       0.07       0.46       2.32       2.89       5.20        0.00     0.00   0.556
  sub_90377                  9.37       0.00       0.07       0.27       2.84       1.71       4.55        0.00     0.00   0.486
  sub_90378                  9.37       0.00       0.07       0.36       2.59       2.28       4.87        0.00     0.00   0.520
  sub_90379                  9.37       0.00       0.07       0.61       1.90       3.83       5.73        0.01     0.01   0.611
  sub_90380                  9.37       0.00       0.07       0.56       2.05       3.48       5.53        0.01     0.01   0.591
  sub_90381                  9.37       0.00       0.07       0.56       2.03       3.53       5.56        0.00     0.00   0.593
  sub_90382                  9.37       0.00       0.07       0.47       2.30       2.93       5.22        0.00     0.01   0.558
  sub_90383                  9.37       0.00       0.07       0.40       2.49       2.50       4.99        0.00     0.00   0.532
  sub_90384                  9.37       0.00       0.07       0.76       1.47       4.78       6.25        0.00     0.00   0.667
  sub_90385                  9.37       0.00       0.07       0.34       2.66       2.12       4.77        0.00     0.00   0.510
  sub_90386                  9.37       0.00       0.07       0.62       1.88       3.87       5.75        0.01     0.01   0.614
  sub_90387                  9.37       0.00       0.07       0.48       2.26       3.02       5.28        0.00     0.00   0.563
  sub_90388                  9.37       0.00       0.07       0.48       2.27       2.99       5.26        0.00     0.00   0.562
  sub_90389                  9.37       0.00       0.07       0.53       2.13       3.31       5.44        0.00     0.00   0.581
  sub_90390                  9.37       0.00       0.07       0.67       1.75       4.17       5.91        0.00     0.00   0.631
  sub_90391                  9.37       0.00       0.07       1.29       0.00       8.09       8.09        0.00     0.00   0.863
  sub_90392                  9.37       0.00       0.07       0.83       1.30       5.17       6.47        0.01     0.00   0.691
  sub_90393                  9.37       0.00       0.07       0.82       1.33       5.10       6.43        0.01     0.01   0.687
  sub_90394                  9.37       0.00       0.07       0.78       1.44       4.85       6.29        0.00     0.00   0.672
  sub_90395                  9.37       0.00       0.07       0.30       2.77       1.88       4.64        0.00     0.00   0.496
  sub_90396                  9.37       0.00       0.07       0.00       3.60       0.00       3.60        0.00     0.00   0.385
  sub_90397                  9.37       0.00       0.07       0.70       1.66       4.36       6.02        0.00     0.00   0.643
  sub_90398                  9.37       0.00       0.07       0.73       1.57       4.56       6.13        0.00     0.00   0.654
  sub_90399                  9.37       0.00       0.07       0.41       2.46       2.55       5.02        0.00     0.00   0.536
  sub_90400                  9.37       0.00       0.07       0.49       2.25       3.03       5.28        0.00     0.00   0.564
  sub_90401                  9.37       0.00       0.07       0.29       2.81       1.79       4.59        0.00     0.00   0.490
  sub_90402                  9.37       0.00       0.07       0.30       2.76       1.89       4.65        0.00     0.00   0.496
  sub_90403                  9.37       0.00       0.07       0.49       2.24       3.06       5.30        0.00     0.00   0.565
  sub_90404                  9.37       0.00       0.07       0.51       2.17       3.21       5.38        0.00     0.00   0.575
  sub_90405                  9.37       0.00       0.07       0.56       2.03       3.53       5.56        0.00     0.00   0.593
  sub_90406                  9.37       0.00       0.07       0.68       1.70       4.27       5.97        0.00     0.00   0.637
  sub_90407                  9.37       0.00       0.07       0.67       1.74       4.19       5.92        0.00     0.00   0.633
  sub_90408                  9.37       0.00       0.07       0.43       2.41       2.68       5.09        0.01     0.01   0.543
  sub_90427                  9.37       0.00       0.07       0.50       2.20       3.14       5.34        0.01     0.01   0.571
  sub_90428                  9.37       0.00       0.07       0.61       1.90       3.82       5.72        0.01     0.00   0.611
  sub_90430                  9.37       0.00       0.07       0.29       2.79       1.82       4.61        0.00     0.00   0.492
  sub_90431                  9.37       0.00       0.07       0.47       2.30       2.93       5.23        0.00     0.00   0.558
  sub_90433                  9.37       0.00       0.07       0.65       1.80       4.04       5.84        0.00     0.00   0.624
  sub_90434                  9.37       0.00       0.07       0.23       2.96       1.44       4.40        0.00     0.00   0.470
  sub_90435                  9.37       0.00       0.07       0.41       2.46       2.57       5.03        0.00     0.00   0.537
  sub_90436                  9.37       0.00       0.07       0.21       3.03       1.29       4.32        0.00     0.00   0.461
  sub_90437                  9.37       0.00       0.07       0.33       2.69       2.04       4.73        0.01     0.01   0.505
  sub_90438                  9.37       0.00       0.07       0.46       2.32       2.88       5.20        0.00     0.00   0.555
  sub_90439                  9.37       0.00       0.07       0.47       2.31       2.91       5.22        0.00     0.00   0.557
  sub_90440                  9.37       0.00       0.07       0.53       2.13       3.30       5.43        0.01     0.01   0.580
  sub_90441                  9.37       0.00       0.07       0.86       1.20       5.39       6.59        0.00     0.00   0.704
  sub_90442                  9.37       0.00       0.07       1.01       0.78       6.34       7.12        0.01     0.01   0.760
  sub_90443                  9.37       0.00       0.07       0.76       1.50       4.72       6.22        0.01     0.01   0.664
  sub_90444                  9.37       0.00       0.07       0.36       2.59       2.27       4.86        0.00     0.01   0.519
  sub_90445                  9.37       0.00       0.07       0.64       1.82       3.99       5.82        0.00     0.00   0.621
  sub_90446                  9.37       0.00       0.07       0.39       2.53       2.42       4.94        0.00     0.00   0.528
  sub_90447                  9.37       0.00       0.07       0.60       1.93       3.76       5.69        0.01     0.01   0.607
  sub_90448                  9.37       0.00       0.07       0.56       2.05       3.49       5.54        0.01     0.01   0.591
  sub_90449                  9.37       0.00       0.07       0.53       2.13       3.29       5.43        0.00     0.00   0.580
  sub_90450                  9.37       0.00       0.07       0.45       2.36       2.79       5.15        0.00     0.00   0.550
  sub_90451                  9.37       0.00       0.07       0.57       2.02       3.54       5.57        0.00     0.01   0.594
  sub_90452                  9.37       0.00       0.07       0.73       1.58       4.55       6.12        0.00     0.00   0.654
  sub_90453                  9.37       0.00       0.07       0.37       2.56       2.34       4.90        0.00     0.00   0.523
  sub_90454                  9.37       0.00       0.07       0.50       2.20       3.15       5.35        0.01     0.01   0.571
  sub_90455                  9.37       0.00       0.07       0.28       2.83       1.73       4.56        0.00     0.00   0.487
  sub_90456                  9.37       0.00       0.07       0.75       1.51       4.69       6.20        0.01     0.01   0.662
  sub_90457                  9.37       0.00       0.07       0.74       1.55       4.61       6.16        0.01     0.01   0.658
  sub_90459                  9.37       0.00       0.07       0.90       1.11       5.60       6.71        0.01     0.01   0.716
  sub_90460                  9.37       0.00       0.07       1.20       0.26       7.50       7.76        0.01     0.01   0.829
  sub_90461                  9.37       0.00       0.07       0.43       2.40       2.70       5.10        0.00     0.00   0.544
  sub_90462                  9.37       0.00       0.07       0.61       1.91       3.80       5.71        0.00     0.00   0.610
  sub_90463                  9.37       0.00       0.07       0.31       2.73       1.95       4.68        0.00     0.00   0.500
  sub_90464                  9.37       0.00       0.07       0.52       2.15       3.25       5.40        0.01     0.01   0.577
  sub_90465                  9.37       0.00       0.07       0.28       2.83       1.73       4.56        0.00     0.00   0.487
  sub_90466                  9.37       0.00       0.07       0.49       2.25       3.03       5.28        0.01     0.01   0.564
  sub_90467                  9.37       0.00       0.07       0.24       2.94       1.48       4.43        0.01     0.01   0.472
  sub_90468                  9.37       0.00       0.07       0.46       2.32       2.87       5.20        0.01     0.01   0.555
  sub_90469                  9.37       0.00       0.07       0.28       2.83       1.73       4.56        0.00     0.00   0.487
  sub_90470                  9.37       0.00       0.07       0.48       2.28       2.98       5.25        0.01     0.01   0.561
  sub_90471                  9.37       0.00       0.07       0.39       2.50       2.46       4.97        0.01     0.01   0.530
  sub_90477                  9.37       0.00       0.07       0.27       2.85       1.68       4.54        0.01     0.01   0.484
  sub_90478                  9.37       0.00       0.07       0.31       2.73       1.95       4.68        0.00     0.00   0.500
  sub_90479                  9.37       0.00       0.07       0.74       1.54       4.64       6.17        0.00     0.00   0.659
  sub_90480                  9.37       0.00       0.07       0.37       2.59       2.28       4.87        0.01     0.01   0.520
  sub_90481                  9.37       0.00       0.07       0.46       2.31       2.89       5.21        0.00     0.01   0.556
  sub_90482                  9.37       0.00       0.07       0.48       2.26       3.02       5.27        0.00     0.00   0.563
  sub_90483                  9.37       0.00       0.07       0.97       0.90       6.07       6.97        0.01     0.01   0.744
  sub_90484                  9.37       0.00       0.07       0.40       2.48       2.53       5.00        0.00     0.01   0.534
  sub_90485                  9.37       0.00       0.07       0.73       1.57       4.56       6.13        0.01     0.01   0.654
  sub_90486                  9.37       0.00       0.07       0.54       2.10       3.38       5.48        0.01     0.01   0.585
  sub_90487                  9.37       0.00       0.07       0.46       2.31       2.89       5.21        0.01     0.01   0.556
  sub_90488                  9.37       0.00       0.07       0.57       2.03       3.53       5.56        0.01     0.01   0.594
  sub_90489                  9.37       0.00       0.07       0.29       2.81       1.79       4.59        0.00     0.00   0.490
  sub_90490                  9.37       0.00       0.07       0.26       2.89       1.60       4.49        0.00     0.01   0.479
  sub_90491                  9.37       0.00       0.07       0.30       2.76       1.88       4.65        0.00     0.01   0.496
  sub_90492                  9.37       0.00       0.07       0.41       2.47       2.54       5.01        0.01     0.01   0.535
  sub_90493                  9.37       0.00       0.07       0.28       2.83       1.73       4.56        0.00     0.01   0.487
  sub_90494                  9.37       0.00       0.07       0.26       2.87       1.65       4.52        0.00     0.01   0.482
  sub_90495                  9.37       0.00       0.07       0.41       2.45       2.59       5.04        0.01     0.01   0.538
  sub_90496                  9.37       0.00       0.07       0.28       2.83       1.73       4.56        0.00     0.01   0.487
  sub_90497                  9.37       0.00       0.07       0.25       2.91       1.55       4.46        0.00     0.01   0.476
  sub_90498                  9.37       0.00       0.07       0.47       2.30       2.91       5.22        0.01     0.01   0.557
  sub_90499                  9.37       0.00       0.07       0.81       1.34       5.08       6.42        0.01     0.01   0.685
  sub_90500                  9.37       0.00       0.07       0.60       1.94       3.72       5.67        0.01     0.01   0.605
  sub_90501                  9.37       0.00       0.07       0.26       2.87       1.63       4.51        0.00     0.01   0.481
  sub_90502                  9.37       0.00       0.07       0.51       2.18       3.20       5.38        0.01     0.01   0.574
  sub_90503                  9.37       0.00       0.07       0.29       2.80       1.80       4.60        0.00     0.00   0.491
  sub_90504                  9.37       0.00       0.07       0.27       2.86       1.67       4.53        0.00     0.01   0.483
  sub_90505                  9.37       0.00       0.07       0.31       2.73       1.96       4.69        0.00     0.01   0.500
  sub_90506                  9.37       0.00       0.07       0.34       2.65       2.14       4.79        0.00     0.00   0.511
  sub_90507                  9.37       0.00       0.07       0.36       2.61       2.24       4.84        0.00     0.01   0.517
  sub_90508                  9.37       0.00       0.07       0.35       2.64       2.17       4.81        0.00     0.00   0.513
  sub_90509                  9.37       0.00       0.07       0.72       1.61       4.48       6.09        0.00     0.00   0.650
  sub_90510                  9.37       0.00       0.07       0.32       2.70       2.02       4.72        0.00     0.00   0.504
  sub_90511                  9.37       0.00       0.07       0.55       2.06       3.47       5.52        0.00     0.00   0.590
  sub_90512                  9.37       0.00       0.07       0.37       2.58       2.30       4.88        0.00     0.01   0.521
  sub_90513                  9.37       0.00       0.07       0.25       2.90       1.57       4.47        0.01     0.01   0.478
  sub_90514                  9.37       0.00       0.07       0.33       2.67       2.09       4.76        0.01     0.01   0.508
  sub_90515                  9.37       0.00       0.07       0.59       1.97       3.67       5.64        0.01     0.01   0.602
  sub_90516                  9.37       0.00       0.07       0.82       1.32       5.13       6.44        0.00     0.00   0.688
  sub_90517                  9.37       0.00       0.07       0.59       1.95       3.71       5.66        0.00     0.00   0.604
  sub_90518                  9.37       0.00       0.07       0.18       3.11       1.11       4.22        0.00     0.00   0.450
  sub_90519                  9.37       0.00       0.07       0.66       1.77       4.12       5.89        0.01     0.01   0.629
  sub_90520                  9.37       0.00       0.07       0.64       1.82       4.01       5.83        0.01     0.01   0.622
  sub_90521                  9.37       0.00       0.07       0.38       2.55       2.36       4.91        0.00     0.00   0.525
  sub_90522                  9.37       0.00       0.07       0.30       2.76       1.89       4.65        0.00     0.00   0.497
  sub_90523                  9.37       0.00       0.07       0.38       2.56       2.35       4.90        0.01     0.01   0.524
  sub_90524                  9.37       0.00       0.07       0.63       1.84       3.95       5.79        0.01     0.01   0.618
  sub_90525                  9.37       0.00       0.07       0.80       1.39       4.97       6.36        0.02     0.01   0.679
  sub_90526                  9.37       0.00       0.07       0.64       1.82       3.99       5.82        0.00     0.00   0.621
  sub_90527                  9.37       0.00       0.07       0.82       1.31       5.15       6.46        0.01     0.01   0.690
  sub_90549                  9.37       0.00       0.07       0.60       1.94       3.74       5.68        0.00     0.00   0.606
  sub_90550                  9.37       0.00       0.07       0.00       3.60       0.00       3.60        0.00     0.00   0.385
  sub_90551                  9.37       0.00       0.07       0.70       1.65       4.37       6.03        0.00     0.00   0.644
  sub_90552                  9.37       0.00       0.07       0.29       2.80       1.79       4.60        0.01     0.02   0.491
  sub_90553                  9.37       0.00       0.07       0.67       1.73       4.19       5.93        0.00     0.00   0.633
  sub_90554                  9.37       0.00       0.07       0.64       1.82       3.99       5.82        0.00     0.00   0.621
  sub_90555                  9.37       0.00       0.07       0.78       1.43       4.87       6.30        0.01     0.00   0.673
  sub_90556                  9.37       0.00       0.07       0.85       1.22       5.34       6.56        0.01     0.01   0.701
  sub_90557                  9.37       0.00       0.07       0.44       2.38       2.75       5.13        0.01     0.01   0.547
  sub_90558                  9.37       0.00       0.07       0.44       2.37       2.78       5.14        0.01     0.01   0.549
  sub_90559                  9.37       0.00       0.07       0.70       1.66       4.35       6.02        0.01     0.01   0.642
  sub_90560                  9.37       0.00       0.07       0.58       2.00       3.59       5.60        0.01     0.01   0.597
  sub_90561                  9.37       0.00       0.07       0.51       2.18       3.20       5.38        0.01     0.01   0.574
  sub_90562                  9.37       0.00       0.07       0.47       2.28       2.96       5.24        0.01     0.01   0.560
  sub_90563                  9.37       0.00       0.07       0.45       2.36       2.79       5.15        0.01     0.01   0.550
  sub_90564                  9.37       0.00       0.07       0.39       2.53       2.42       4.94        0.00     0.00   0.528
  sub_90565                  9.37       0.00       0.07       0.55       2.07       3.44       5.51        0.01     0.01   0.588
  sub_90566                  9.37       0.00       0.07       0.57       2.03       3.53       5.56        0.01     0.01   0.594
  sub_90567                  9.37       0.00       0.07       0.67       1.73       4.21       5.93        0.00     0.00   0.634
  sub_90568                  9.37       0.00       0.07       0.00       3.60       0.00       3.60        0.00     0.00   0.385
  sub_90569                  9.37       0.00       0.07       0.62       1.88       3.87       5.75        0.00     0.00   0.614
  sub_90570                  9.37       0.00       0.07       0.74       1.54       4.62       6.16        0.00     0.00   0.658
  sub_90571                  9.37       0.00       0.07       0.40       2.50       2.48       4.98        0.00     0.00   0.531
  sub_90572                  9.37       0.00       0.07       0.39       2.50       2.46       4.97        0.01     0.01   0.530
  sub_90573                  9.37       0.00       0.07       0.26       2.87       1.65       4.52        0.00     0.01   0.482
  sub_90574                  9.37       0.00       0.07       0.30       2.77       1.87       4.64        0.00     0.00   0.496
  sub_90575                  9.37       0.00       0.07       0.49       2.24       3.07       5.30        0.01     0.01   0.566
  sub_90576                  9.37       0.00       0.07       0.53       2.12       3.33       5.45        0.01     0.01   0.582
  sub_90577                  9.37       0.00       0.07       0.52       2.16       3.23       5.40        0.00     0.01   0.576
  sub_90578                  9.37       0.00       0.07       0.45       2.35       2.82       5.17        0.01     0.01   0.552
  sub_90579                  9.37       0.00       0.07       0.38       2.55       2.36       4.91        0.01     0.01   0.524
  sub_90580                  9.37       0.00       0.07       0.78       1.42       4.90       6.32        0.01     0.01   0.675
  sub_90581                  9.37       0.00       0.07       0.63       1.84       3.95       5.79        0.01     0.01   0.619
  sub_90582                  9.37       0.00       0.07       0.50       2.22       3.10       5.32        0.01     0.01   0.568
  sub_90583                  9.37       0.00       0.07       0.62       1.87       3.88       5.75        0.01     0.01   0.614
  sub_90584                  9.37       0.00       0.07       0.35       2.63       2.17       4.81        0.00     0.01   0.513
  sub_90585                  9.37       0.00       0.07       0.35       2.64       2.17       4.80        0.01     0.01   0.513
  sub_90586                  9.37       0.00       0.07       0.38       2.54       2.38       4.92        0.00     0.01   0.526
  sub_90587                  9.37       0.00       0.07       0.42       2.43       2.63       5.06        0.00     0.00   0.540
  sub_90588                  9.37       0.00       0.07       0.29       2.80       1.81       4.61        0.00     0.00   0.492
  sub_90589                  9.37       0.00       0.07       0.47       2.29       2.96       5.24        0.00     0.01   0.560
  sub_90590                  9.37       0.00       0.07       0.46       2.33       2.85       5.18        0.01     0.01   0.553
  sub_90591                  9.37       0.00       0.07       0.31       2.74       1.94       4.68        0.00     0.01   0.499
  sub_90592                  9.37       0.00       0.07       0.30       2.77       1.88       4.64        0.00     0.01   0.496
  sub_90593                  9.37       0.00       0.07       0.41       2.47       2.54       5.01        0.00     0.01   0.535
  sub_90594                  9.37       0.00       0.07       0.50       2.20       3.14       5.34        0.01     0.01   0.570
  sub_90595                  9.37       0.00       0.07       0.51       2.19       3.17       5.36        0.01     0.01   0.572
  sub_90596                  9.37       0.00       0.07       0.29       2.80       1.80       4.60        0.00     0.00   0.491
  sub_90597                  9.37       0.00       0.07       0.67       1.72       4.21       5.94        0.00     0.00   0.634
  sub_90598                  9.37       0.00       0.07       0.67       1.74       4.18       5.92        0.00     0.00   0.632
  sub_90599                  9.37       0.00       0.07       0.49       2.23       3.07       5.31        0.00     0.00   0.567
  sub_90600                  9.37       0.00       0.07       0.45       2.36       2.79       5.15        0.00     0.00   0.550
  sub_90601                  9.37       0.00       0.07       0.75       1.53       4.66       6.19        0.01     0.00   0.661
  sub_90602                  9.37       0.00       0.07       0.55       2.06       3.47       5.52        0.00     0.00   0.590
  sub_90603                  9.37       0.00       0.07       0.70       1.64       4.40       6.04        0.00     0.00   0.645
  sub_90604                  9.37       0.00       0.07       0.47       2.29       2.94       5.23        0.00     0.00   0.559
  sub_90605                  9.37       0.00       0.07       0.46       2.31       2.90       5.21        0.01     0.01   0.556
  sub_90606                  9.37       0.00       0.07       0.52       2.15       3.25       5.41        0.00     0.00   0.577
  sub_90607                  9.37       0.00       0.07       0.54       2.10       3.38       5.48        0.00     0.00   0.585
  sub_90608                  9.37       0.00       0.07       0.65       1.80       4.04       5.84        0.00     0.00   0.624
  sub_90609                  9.37       0.00       0.07       0.76       1.49       4.75       6.24        0.00     0.00   0.666
  sub_90610                  9.37       0.00       0.07       0.74       1.55       4.61       6.16        0.00     0.00   0.657
  sub_90611                  9.37       0.00       0.07       0.66       1.77       4.12       5.89        0.00     0.00   0.628
  sub_90612                  9.37       0.00       0.07       0.74       1.53       4.65       6.18        0.00     0.00   0.660
  sub_90613                  9.37       0.00       0.07       0.79       1.39       4.96       6.35        0.01     0.01   0.678
  sub_90615                  9.37       0.00       0.07       0.68       1.72       4.22       5.94        0.01     0.01   0.634
  sub_90616                  9.37       0.00       0.07       0.35       2.64       2.16       4.80        0.01     0.01   0.512
  sub_90617                  9.37       0.00       0.07       0.45       2.36       2.80       5.15        0.01     0.01   0.550
  sub_90618                  9.37       0.00       0.07       0.29       2.80       1.80       4.60        0.01     0.01   0.491
  sub_90619                  9.37       0.00       0.07       0.05       3.47       0.29       3.76        0.00     0.00   0.402
  sub_90620                  9.37       0.00       0.07       0.30       2.76       1.90       4.65        0.00     0.00   0.497
  sub_90621                  9.37       0.00       0.07       0.64       1.82       4.01       5.82        0.01     0.01   0.622
  sub_90623                  9.37       0.00       0.07       0.55       2.08       3.43       5.50        0.01     0.01   0.588
  sub_90624                  9.37       0.00       0.07       0.53       2.13       3.31       5.44        0.00     0.00   0.580
  sub_90625                  9.37       0.00       0.07       0.45       2.35       2.82       5.17        0.00     0.00   0.552
  sub_90626                  9.37       0.00       0.07       0.40       2.48       2.51       5.00        0.00     0.00   0.533
  sub_90627                  9.37       0.00       0.07       0.71       1.62       4.46       6.07        0.01     0.01   0.648
  sub_90628                  9.37       0.00       0.07       0.58       1.98       3.65       5.63        0.01     0.01   0.601
  sub_90629                  9.37       0.00       0.07       0.68       1.71       4.24       5.95        0.01     0.01   0.636
  sub_90630                  9.37       0.00       0.07       0.29       2.81       1.79       4.59        0.00     0.00   0.490
  sub_90631                  9.37       0.00       0.07       0.45       2.36       2.80       5.15        0.00     0.00   0.550
  sub_90632                  9.37       0.00       0.07       0.46       2.31       2.90       5.21        0.00     0.00   0.556
  sub_90633                  9.37       0.00       0.07       0.28       2.81       1.78       4.59        0.00     0.01   0.490
  sub_90634                  9.37       0.00       0.07       0.43       2.40       2.70       5.10        0.00     0.00   0.544
  sub_90635                  9.37       0.00       0.07       0.63       1.84       3.95       5.79        0.00     0.00   0.618
  sub_90636                  9.37       0.00       0.07       0.48       2.27       2.99       5.26        0.00     0.01   0.562
  sub_90637                  9.37       0.00       0.07       0.44       2.37       2.77       5.14        0.01     0.01   0.549
  sub_90638                  9.37       0.00       0.07       0.26       2.88       1.62       4.50        0.01     0.01   0.480
  sub_90639                  9.37       0.00       0.07       0.68       1.72       4.23       5.95        0.01     0.01   0.635
  sub_90640                  9.37       0.00       0.07       0.34       2.66       2.12       4.78        0.01     0.01   0.510
  sub_90641                  9.37       0.00       0.07       0.42       2.44       2.61       5.05        0.01     0.01   0.539
  sub_90642                  9.37       0.00       0.07       0.53       2.13       3.29       5.43        0.00     0.00   0.580
  sub_90643                  9.37       0.00       0.07       0.34       2.66       2.11       4.77        0.01     0.01   0.510
  sub_90644                  9.37       0.00       0.07       0.29       2.79       1.83       4.61        0.00     0.01   0.493
  sub_90645                  9.37       0.00       0.07       0.41       2.45       2.59       5.04        0.00     0.00   0.538
  sub_90646                  9.37       0.00       0.07       0.78       1.44       4.85       6.29        0.01     0.00   0.672
  sub_90647                  9.37       0.00       0.07       1.07       0.63       6.67       7.30        0.01     0.01   0.780
  sub_90648                  9.37       0.00       0.07       0.28       2.82       1.76       4.58        0.00     0.00   0.489
  sub_90649                  9.37       0.00       0.07       0.41       2.45       2.59       5.04        0.01     0.01   0.538
  sub_90650                  9.37       0.00       0.07       0.41       2.47       2.55       5.02        0.01     0.01   0.536
  sub_90651                  9.37       0.00       0.07       0.34       2.67       2.10       4.77        0.00     0.01   0.509
  sub_90652                  9.37       0.00       0.07       0.43       2.42       2.66       5.08        0.00     0.00   0.542
  sub_90653                  9.37       0.00       0.07       0.52       2.16       3.23       5.40        0.00     0.00   0.576
  sub_90654                  9.37       0.00       0.07       0.59       1.95       3.71       5.66        0.00     0.00   0.604
  sub_90655                  9.37       0.00       0.07       0.38       2.53       2.40       4.93        0.00     0.01   0.527
  sub_90656                  9.37       0.00       0.07       0.68       1.70       4.27       5.97        0.01     0.01   0.637
  sub_90657                  9.37       0.00       0.07       0.72       1.60       4.49       6.09        0.01     0.01   0.650
  sub_90658                  9.37       0.00       0.07       0.41       2.46       2.56       5.02        0.01     0.01   0.536
  sub_90659                  9.37       0.00       0.07       0.94       0.99       5.86       6.85        0.00     0.00   0.731
  sub_90662                  9.37       0.00       0.07       0.48       2.27       3.00       5.26        0.00     0.00   0.562
  sub_90663                  9.37       0.00       0.07       0.65       1.78       4.09       5.87        0.01     0.01   0.627
  sub_90664                  9.37       0.00       0.07       1.29       0.00       8.09       8.09        0.00     0.00   0.863
  sub_90665                  9.37       0.00       0.07       0.60       1.92       3.78       5.70        0.01     0.01   0.608
  sub_90669                  9.37       0.00       0.07       0.49       2.24       3.06       5.30        0.00     0.00   0.566
  sub_90670                  9.37       0.00       0.07       0.36       2.60       2.24       4.84        0.00     0.00   0.517
  sub_90671                  9.37       0.00       0.07       0.39       2.51       2.46       4.97        0.00     0.00   0.530
  sub_90672                  9.37       0.00       0.07       0.52       2.15       3.27       5.42        0.00     0.01   0.578
  sub_90673                  9.37       0.00       0.07       0.67       1.75       4.17       5.91        0.01     0.01   0.631
  sub_90674                  9.37       0.00       0.07       0.19       3.06       1.21       4.27        0.01     0.01   0.456
  sub_90675                  9.37       0.00       0.07       0.29       2.78       1.84       4.62        0.01     0.01   0.494
  sub_90676                  9.37       0.00       0.07       0.43       2.39       2.72       5.11        0.01     0.01   0.545
  sub_90677                  9.37       0.00       0.07       0.64       1.83       3.97       5.81        0.00     0.00   0.620
  sub_90678                  9.37       0.00       0.07       0.57       2.02       3.56       5.58        0.00     0.00   0.595
  sub_90679                  9.37       0.00       0.07       0.63       1.86       3.91       5.77        0.01     0.01   0.616
  sub_90680                  9.37       0.00       0.07       0.36       2.60       2.25       4.85        0.01     0.01   0.518
  sub_90681                  9.37       0.00       0.07       0.64       1.83       3.98       5.81        0.00     0.00   0.620
  sub_90682                  9.37       0.00       0.07       0.57       2.01       3.58       5.58        0.01     0.01   0.596
  sub_90683                  9.37       0.00       0.07       0.94       0.97       5.90       6.88        0.00     0.00   0.734
  sub_90684                  9.37       0.00       0.07       0.21       3.02       1.32       4.33        0.00     0.00   0.463
  sub_90685                  9.37       0.00       0.07       0.15       3.17       0.96       4.14        0.00     0.00   0.442
  sub_90686                  9.37       0.00       0.07       0.57       2.02       3.56       5.58        0.00     0.00   0.595
  sub_90688                  9.37       0.00       0.07       0.43       2.40       2.70       5.10        0.00     0.00   0.544
  sub_90689                  9.37       0.00       0.07       0.69       1.68       4.31       5.99        0.00     0.00   0.640
  sub_90690                  9.37       0.00       0.07       0.54       2.10       3.38       5.48        0.00     0.00   0.585
  sub_90691                  9.37       0.00       0.07       0.46       2.31       2.91       5.21        0.00     0.00   0.557
  sub_90692                  9.37       0.00       0.07       0.40       2.48       2.52       5.00        0.00     0.00   0.534
  sub_90693                  9.37       0.00       0.07       0.76       1.48       4.76       6.24        0.00     0.00   0.666
  sub_90694                  9.37       0.00       0.07       1.04       0.70       6.52       7.22        0.00     0.00   0.771
  sub_90695                  9.37       0.00       0.07       0.58       1.98       3.64       5.62        0.00     0.00   0.600
  sub_90696                  9.37       0.00       0.07       0.65       1.80       4.04       5.84        0.00     0.00   0.624
  sub_90697                  9.37       0.00       0.07       0.67       1.75       4.16       5.91        0.00     0.00   0.631
  sub_90698                  9.37       0.00       0.07       0.75       1.51       4.70       6.21        0.00     0.00   0.663
  sub_90699                  9.37       0.00       0.07       0.89       1.12       5.58       6.70        0.00     0.00   0.715
  sub_90700                  9.37       0.00       0.07       0.25       2.92       1.54       4.46        0.00     0.00   0.476
  sub_90701                  9.37       0.00       0.07       0.23       2.97       1.43       4.39        0.00     0.00   0.469
  sub_90702                  9.37       0.00       0.07       0.26       2.88       1.62       4.50        0.00     0.00   0.480
  sub_90703                  9.37       0.00       0.07       0.66       1.75       4.15       5.91        0.00     0.00   0.630
  sub_90704                  9.37       0.00       0.07       0.64       1.82       4.00       5.82        0.00     0.00   0.621
  sub_90705                  9.37       0.00       0.07       0.69       1.68       4.32       6.00        0.01     0.01   0.640
  sub_90706                  9.37       0.00       0.07       0.47       2.28       2.96       5.24        0.00     0.00   0.560
  sub_90707                  9.37       0.00       0.07       0.32       2.72       1.97       4.70        0.00     0.00   0.501
  sub_90708                  9.37       0.00       0.07       0.77       1.46       4.81       6.27        0.01     0.01   0.669
  sub_90709                  9.37       0.00       0.07       0.57       2.02       3.56       5.58        0.01     0.01   0.595
  sub_90710                  9.37       0.00       0.07       0.74       1.53       4.64       6.18        0.01     0.01   0.659
  sub_90724                  9.37       0.00       0.07       0.78       1.44       4.85       6.29        0.00     0.00   0.672
  sub_90725                  9.37       0.00       0.07       1.29       0.00       8.09       8.09        0.00     0.00   0.863
  sub_90726                  9.37       0.00       0.07       1.29       0.00       8.09       8.09        0.00     0.00   0.863
  sub_90727                  9.37       0.00       0.07       1.29       0.00       8.09       8.09        0.00     0.00   0.863
  sub_90728                  9.37       0.00       0.07       1.29       0.00       8.09       8.09        0.00     0.00   0.863
  sub_90729                  9.37       0.00       0.07       1.29       0.00       8.09       8.09        0.00     0.00   0.863
  sub_90730                  9.37       0.00       0.07       1.29       0.00       8.09       8.09        0.00     0.00   0.863
  sub_90731                  9.37       0.00       0.07       1.29       0.00       8.09       8.09        0.00     0.00   0.863
  sub_90732                  9.37       0.00       0.07       1.29       0.00       8.09       8.09        0.00     0.00   0.863
  sub_90733                  9.37       0.00       0.07       0.38       2.54       2.38       4.92        0.00     0.00   0.525
  
  
  ******************
  Node Depth Summary
  ******************
  
  ---------------------------------------------------------------------------------
                                 Average  Maximum  Maximum  Time of Max    Reported
                                   Depth    Depth      HGL   Occurrence   Max Depth
  Node                 Type       Meters   Meters   Meters  days hr:min      Meters
  ---------------------------------------------------------------------------------
  j_9006F              JUNCTION     0.04     0.21    -0.15     0  01:40        0.21
  j_90334              JUNCTION     0.02     0.11    -0.10     0  01:30        0.11
  j_90335              JUNCTION     0.03     0.18    -0.23     0  01:35        0.18
  j_90336              JUNCTION     0.04     0.18     0.01     0  01:35        0.17
  j_90363              JUNCTION     0.06     0.21    -0.14     0  01:35        0.21
  j_90364              JUNCTION     0.06     0.21    -0.14     0  01:34        0.21
  j_90365              JUNCTION     0.06     0.21    -0.14     0  01:35        0.21
  j_90366              JUNCTION     0.02     0.10    -0.21     0  01:35        0.10
  j_90367              JUNCTION     0.06     0.28    -0.21     0  01:35        0.27
  j_90368              JUNCTION     0.01     0.08    -0.21     0  01:36        0.07
  j_90369              JUNCTION     0.02     0.08    -0.22     0  01:32        0.08
  j_90370              JUNCTION     0.06     0.28    -0.23     0  01:35        0.28
  j_90371              JUNCTION     0.08     0.32    -0.24     0  01:35        0.32
  j_90372              JUNCTION     0.01     0.03    -0.22     0  01:35        0.03
  j_90373              JUNCTION     0.04     0.24    -0.23     0  01:36        0.23
  j_90374              JUNCTION     0.00     0.05    -0.23     0  01:37        0.04
  j_90375              JUNCTION     0.02     0.11    -0.23     0  01:37        0.10
  j_90376              JUNCTION     0.01     0.06    -0.09     0  01:35        0.06
  j_90377              JUNCTION     0.01     0.06    -0.11     0  01:35        0.06
  j_90378              JUNCTION     0.03     0.14    -0.26     0  01:35        0.14
  j_90379              JUNCTION     0.02     0.09    -0.16     0  01:35        0.09
  j_90380              JUNCTION     0.02     0.10    -0.23     0  01:35        0.10
  j_90381              JUNCTION     0.04     0.17    -0.28     0  01:35        0.17
  j_90382              JUNCTION     0.11     0.46    -0.46     0  01:37        0.45
  j_90383              JUNCTION     0.10     0.41    -0.41     0  01:37        0.40
  j_90384              JUNCTION     0.06     0.20    -0.26     0  01:35        0.20
  j_90385              JUNCTION     0.02     0.11    -0.26     0  01:35        0.11
  j_90386              JUNCTION     0.02     0.09    -0.14     0  01:35        0.09
  j_90387              JUNCTION     0.01     0.07    -0.13     0  01:35        0.07
  j_90388              JUNCTION     0.05     0.15    -0.24     0  01:35        0.15
  j_90389              JUNCTION     0.08     0.31    -0.30     0  01:36        0.30
  j_90390              JUNCTION     0.07     0.31    -0.26     0  01:36        0.30
  j_90391              JUNCTION     0.05     0.20    -0.04     0  01:35        0.20
  j_90392              JUNCTION     0.06     0.23    -0.02     0  01:35        0.23
  j_90393              JUNCTION     0.04     0.19    -0.00     0  01:35        0.19
  j_90394              JUNCTION     0.02     0.12     0.02     0  01:35        0.12
  j_90395              JUNCTION     0.02     0.11     0.03     0  01:35        0.11
  j_90396              JUNCTION     0.01     0.05     0.03     0  01:35        0.05
  j_90397              JUNCTION     0.10     0.41    -0.36     0  01:36        0.40
  j_90398              JUNCTION     0.05     0.26    -0.36     0  01:37        0.25
  j_90399              JUNCTION     0.02     0.09    -0.22     0  01:35        0.09
  j_90400              JUNCTION     0.01     0.05    -0.21     0  01:35        0.05
  j_90401              JUNCTION     0.02     0.08    -0.23     0  01:35        0.08
  j_90402              JUNCTION     0.01     0.09    -0.27     0  01:35        0.09
  j_90403              JUNCTION     0.01     0.04    -0.21     0  01:35        0.04
  j_90404              JUNCTION     0.02     0.09    -0.21     0  01:35        0.09
  j_90405              JUNCTION     0.04     0.20    -0.36     0  01:37        0.20
  j_90406              JUNCTION     0.03     0.15    -0.35     0  01:38        0.15
  j_90407              JUNCTION     0.01     0.07    -0.34     0  01:38        0.07
  j_90408              JUNCTION     0.02     0.11    -0.21     0  01:35        0.11
  j_90427              JUNCTION     0.06     0.29    -0.14     0  01:35        0.28
  j_90428              JUNCTION     0.04     0.23    -0.14     0  01:35        0.22
  j_90430              JUNCTION     0.03     0.12    -1.45     0  01:40        0.12
  j_90433              JUNCTION     0.03     0.13    -0.24     0  01:35        0.13
  j_90434              JUNCTION     0.07     0.19    -0.24     0  01:35        0.19
  j_90435              JUNCTION     0.03     0.11    -0.26     0  01:35        0.11
  j_90436              JUNCTION     0.04     0.19    -0.27     0  01:35        0.19
  j_90437              JUNCTION     0.14     0.53    -0.83     0  01:40        0.53
  j_90438              JUNCTION     0.18     0.62    -0.73     0  01:40        0.62
  j_90439              JUNCTION     0.02     0.09    -0.12     0  01:35        0.09
  j_90440              JUNCTION     0.01     0.08    -0.08     0  01:35        0.08
  j_90441              JUNCTION     0.01     0.06    -0.07     0  01:35        0.06
  j_90442              JUNCTION     0.12     0.43    -0.21     0  01:36        0.42
  j_90443              JUNCTION     0.18     0.64    -0.66     0  01:40        0.64
  j_90444              JUNCTION     0.11     0.48    -0.63     0  01:40        0.48
  j_90445              JUNCTION     0.03     0.14    -0.29     0  01:35        0.14
  j_90446              JUNCTION     0.02     0.12    -0.24     0  01:35        0.12
  j_90447              JUNCTION     0.02     0.10    -0.15     0  01:35        0.10
  j_90448              JUNCTION     0.02     0.09    -0.18     0  01:35        0.09
  j_90449              JUNCTION     0.03     0.13    -0.35     0  01:35        0.13
  j_90450              JUNCTION     0.02     0.10    -0.37     0  01:35        0.10
  j_90451              JUNCTION     0.11     0.44    -0.58     0  01:40        0.44
  j_90452              JUNCTION     0.02     0.11    -0.31     0  01:35        0.11
  j_90453              JUNCTION     0.11     0.45    -0.51     0  01:38        0.45
  j_90454              JUNCTION     0.03     0.14    -0.33     0  01:35        0.14
  j_90455              JUNCTION     0.04     0.16    -0.38     0  01:35        0.15
  j_90456              JUNCTION     0.05     0.23    -0.43     0  01:35        0.23
  j_90457              JUNCTION     0.07     0.28    -0.48     0  01:35        0.28
  j_90459              JUNCTION     0.09     0.41    -0.64     0  01:40        0.41
  j_90460              JUNCTION     0.07     0.35    -0.61     0  01:40        0.35
  j_90461              JUNCTION     0.12     0.47    -0.61     0  01:40        0.47
  j_90462              JUNCTION     0.10     0.41    -0.57     0  01:40        0.41
  j_90463              JUNCTION     0.05     0.22    -0.51     0  01:39        0.22
  j_90464              JUNCTION     0.03     0.17    -0.46     0  01:35        0.16
  j_90465              JUNCTION     0.03     0.15    -0.39     0  01:35        0.15
  j_90466              JUNCTION     0.02     0.12    -0.32     0  01:35        0.12
  j_90467              JUNCTION     0.03     0.16    -0.26     0  01:35        0.16
  j_90468              JUNCTION     0.05     0.23    -0.29     0  01:35        0.23
  j_90469              JUNCTION     0.04     0.20    -0.36     0  01:35        0.19
  j_90470              JUNCTION     0.05     0.26    -0.41     0  01:36        0.24
  j_90471              JUNCTION     0.05     0.25    -0.45     0  01:36        0.24
  j_90477              JUNCTION     0.02     0.10    -0.21     0  01:35        0.10
  j_90478              JUNCTION     0.05     0.23    -0.18     0  01:41        0.23
  j_90479              JUNCTION     0.02     0.13    -0.19     0  01:40        0.13
  j_90480              JUNCTION     0.01     0.08    -0.17     0  01:40        0.08
  j_90481              JUNCTION     0.05     0.23    -0.17     0  01:40        0.23
  j_90482              JUNCTION     0.07     0.28    -0.17     0  01:40        0.27
  j_90483              JUNCTION     0.03     0.13    -0.15     0  01:35        0.13
  j_90484              JUNCTION     0.01     0.08    -0.12     0  01:35        0.08
  j_90485              JUNCTION     0.04     0.18    -0.15     0  01:35        0.18
  j_90486              JUNCTION     0.08     0.31    -0.15     0  01:35        0.30
  j_90487              JUNCTION     0.08     0.35    -0.17     0  01:36        0.34
  j_90488              JUNCTION     0.11     0.41    -0.19     0  01:36        0.41
  j_90489              JUNCTION     0.01     0.07    -0.16     0  01:35        0.07
  j_90490              JUNCTION     0.02     0.13    -0.18     0  01:40        0.13
  j_90491              JUNCTION     0.10     0.37    -0.17     0  01:40        0.36
  j_90492              JUNCTION     0.12     0.44    -0.18     0  01:41        0.44
  j_90493              JUNCTION     0.03     0.14    -0.18     0  01:40        0.14
  j_90494              JUNCTION     0.15     0.54    -0.20     0  01:41        0.54
  j_90495              JUNCTION     0.15     0.53    -0.18     0  01:40        0.53
  j_90496              JUNCTION     0.03     0.14    -0.18     0  01:38        0.14
  j_90497              JUNCTION     0.01     0.06    -0.12     0  01:35        0.06
  j_90498              JUNCTION     0.07     0.30    -0.18     0  01:36        0.29
  j_90499              JUNCTION     0.07     0.30    -0.17     0  01:36        0.29
  j_90500              JUNCTION     0.04     0.21    -0.17     0  01:38        0.21
  j_90501              JUNCTION     0.03     0.13    -0.14     0  01:35        0.13
  j_90502              JUNCTION     0.02     0.10    -0.13     0  01:35        0.10
  j_90503              JUNCTION     0.01     0.09    -0.14     0  01:35        0.09
  j_90504              JUNCTION     0.04     0.14    -0.14     0  01:35        0.14
  j_90505              JUNCTION     0.08     0.33    -0.17     0  01:40        0.33
  j_90506              JUNCTION     0.09     0.35    -0.16     0  01:40        0.35
  j_90507              JUNCTION     0.04     0.21    -0.16     0  01:39        0.21
  j_90508              JUNCTION     0.06     0.29    -0.16     0  01:40        0.29
  j_90509              JUNCTION     0.01     0.09    -0.16     0  01:40        0.08
  j_90510              JUNCTION     0.03     0.18    -0.13     0  01:40        0.18
  j_90511              JUNCTION     0.13     0.46    -0.13     0  01:40        0.46
  j_90512              JUNCTION     0.11     0.41    -0.13     0  01:40        0.41
  j_90513              JUNCTION     0.02     0.13    -0.13     0  01:38        0.13
  j_90514              JUNCTION     0.03     0.16    -0.16     0  01:37        0.15
  j_90515              JUNCTION     0.05     0.19    -0.22     0  01:38        0.19
  j_90516              JUNCTION     0.06     0.18    -0.26     0  01:39        0.18
  j_90517              JUNCTION     0.09     0.39    -0.53     0  01:39        0.39
  j_90518              JUNCTION     0.09     0.38    -0.50     0  01:38        0.38
  j_90519              JUNCTION     0.08     0.35    -0.48     0  01:38        0.35
  j_90520              JUNCTION     0.04     0.20    -0.15     0  01:35        0.20
  j_90521              JUNCTION     0.02     0.11    -0.13     0  01:35        0.11
  j_90522              JUNCTION     0.04     0.15    -0.12     0  01:35        0.15
  j_90523              JUNCTION     0.02     0.12    -0.08     0  01:35        0.12
  j_90524              JUNCTION     0.08     0.33    -0.12     0  01:40        0.33
  j_90525              JUNCTION     0.05     0.24    -0.11     0  01:40        0.24
  j_90526              JUNCTION     0.03     0.15    -0.11     0  01:35        0.15
  j_90527              JUNCTION     0.02     0.10    -0.08     0  01:35        0.10
  j_90549              JUNCTION     0.03     0.15    -0.26     0  01:35        0.15
  j_90550              JUNCTION     0.22     0.63    -0.60     0  01:44        0.63
  j_90551              JUNCTION     0.01     0.05     0.10     0  01:35        0.05
  j_90553              JUNCTION     0.06     0.22    -0.16     0  01:35        0.22
  j_90554              JUNCTION     0.04     0.18    -0.16     0  01:35        0.18
  j_90555              JUNCTION     0.02     0.10    -0.14     0  01:35        0.10
  j_90556              JUNCTION     0.05     0.21    -0.16     0  01:35        0.21
  j_90557              JUNCTION     0.06     0.21    -0.17     0  01:35        0.21
  j_90558              JUNCTION     0.14     0.48    -0.23     0  01:40        0.48
  j_90559              JUNCTION     0.08     0.36    -0.22     0  01:40        0.35
  j_90560              JUNCTION     0.08     0.34    -0.22     0  01:40        0.34
  j_90561              JUNCTION     0.04     0.19    -0.19     0  01:41        0.18
  j_90562              JUNCTION     0.07     0.25    -0.20     0  01:40        0.25
  j_90563              JUNCTION     0.13     0.47    -0.23     0  01:40        0.46
  j_90564              JUNCTION     0.17     0.57    -0.24     0  01:40        0.57
  j_90565              JUNCTION     0.02     0.10    -0.24     0  01:40        0.10
  j_90566              JUNCTION     0.01     0.07    -0.13     0  01:33        0.07
  j_90567              JUNCTION     0.01     0.07     0.10     0  01:35        0.07
  j_90568              JUNCTION     0.21     0.63    -0.48     0  01:44        0.63
  j_90569              JUNCTION     0.05     0.16    -0.16     0  01:35        0.16
  j_90570              JUNCTION     0.01     0.05    -0.03     0  01:35        0.05
  j_90571              JUNCTION     0.04     0.19    -0.24     0  01:40        0.18
  j_90572              JUNCTION     0.19     0.62    -0.24     0  01:41        0.61
  j_90573              JUNCTION     0.02     0.10    -0.24     0  01:40        0.10
  j_90574              JUNCTION     0.17     0.58    -0.22     0  01:41        0.57
  j_90575              JUNCTION     0.22     0.66    -0.25     0  01:41        0.65
  j_90576              JUNCTION     0.19     0.61    -0.31     0  01:42        0.61
  j_90577              JUNCTION     0.21     0.63    -0.35     0  01:43        0.63
  j_90578              JUNCTION     0.19     0.60    -0.35     0  01:43        0.60
  j_90579              JUNCTION     0.15     0.53    -0.35     0  01:41        0.53
  j_90580              JUNCTION     0.01     0.08    -0.05     0  01:35        0.08
  j_90581              JUNCTION     0.02     0.11    -0.13     0  01:35        0.11
  j_90582              JUNCTION     0.02     0.11    -0.13     0  01:35        0.11
  j_90583              JUNCTION     0.02     0.11    -0.20     0  01:35        0.11
  j_90584              JUNCTION     0.03     0.14    -0.21     0  01:35        0.14
  j_90585              JUNCTION     0.18     0.59    -0.24     0  01:41        0.59
  j_90586              JUNCTION     0.18     0.60    -0.22     0  01:40        0.59
  j_90587              JUNCTION     0.17     0.57    -0.22     0  01:40        0.57
  j_90588              JUNCTION     0.03     0.15    -0.21     0  01:40        0.14
  j_90589              JUNCTION     0.02     0.10    -0.18     0  01:40        0.10
  j_90590              JUNCTION     0.02     0.09    -0.16     0  01:40        0.08
  j_90591              JUNCTION     0.12     0.46    -0.15     0  01:40        0.46
  j_90592              JUNCTION     0.14     0.50    -0.17     0  01:40        0.50
  j_90593              JUNCTION     0.18     0.58    -0.21     0  01:40        0.58
  j_90594              JUNCTION     0.14     0.50    -0.20     0  01:40        0.50
  j_90595              JUNCTION     0.03     0.14    -0.20     0  01:35        0.14
  j_90596              JUNCTION     0.02     0.12    -0.20     0  01:40        0.12
  j_90597              JUNCTION     0.03     0.14    -0.14     0  01:35        0.14
  j_90598              JUNCTION     0.02     0.11    -0.14     0  01:35        0.10
  j_90599              JUNCTION     0.04     0.17    -0.12     0  01:35        0.17
  j_90600              JUNCTION     0.02     0.11    -0.11     0  01:35        0.11
  j_90601              JUNCTION     0.02     0.09    -0.08     0  01:35        0.09
  j_90602              JUNCTION     0.03     0.13    -0.14     0  01:35        0.13
  j_90603              JUNCTION     0.03     0.13    -0.16     0  01:35        0.13
  j_90604              JUNCTION     0.04     0.18    -0.18     0  01:37        0.18
  j_90605              JUNCTION     0.07     0.28    -0.18     0  01:40        0.28
  j_90606              JUNCTION     0.08     0.27    -0.16     0  01:35        0.27
  j_90607              JUNCTION     0.05     0.22    -0.16     0  01:35        0.22
  j_90608              JUNCTION     0.04     0.18    -0.16     0  01:35        0.18
  j_90609              JUNCTION     0.01     0.06    -0.11     0  01:35        0.06
  j_90610              JUNCTION     0.02     0.11    -0.11     0  01:35        0.11
  j_90611              JUNCTION     0.03     0.13    -0.14     0  01:35        0.13
  j_90612              JUNCTION     0.02     0.11    -0.10     0  01:35        0.11
  j_90613              JUNCTION     0.01     0.08    -0.02     0  01:35        0.08
  j_90615              JUNCTION     0.02     0.10    -0.19     0  01:32        0.10
  j_90616              JUNCTION     0.02     0.14    -0.18     0  01:35        0.14
  j_90617              JUNCTION     0.01     0.07    -0.16     0  01:35        0.07
  j_90618              JUNCTION     0.03     0.15    -0.22     0  01:35        0.15
  j_90619              JUNCTION     0.21     0.64    -0.36     0  01:43        0.64
  j_90620              JUNCTION     0.24     0.69    -0.36     0  01:44        0.69
  j_90621              JUNCTION     0.21     0.63    -0.35     0  01:42        0.63
  j_90623              JUNCTION     0.17     0.56    -0.34     0  01:43        0.56
  j_90624              JUNCTION     0.12     0.45    -0.34     0  01:43        0.45
  j_90625              JUNCTION     0.09     0.39    -0.31     0  01:44        0.39
  j_90626              JUNCTION     0.14     0.50    -0.32     0  01:43        0.50
  j_90627              JUNCTION     0.17     0.56    -0.32     0  01:43        0.55
  j_90628              JUNCTION     0.03     0.17    -0.24     0  01:35        0.17
  j_90629              JUNCTION     0.02     0.13    -0.22     0  01:35        0.13
  j_90630              JUNCTION     0.02     0.12    -0.07     0  01:35        0.12
  j_90631              JUNCTION     0.03     0.17    -0.25     0  01:35        0.16
  j_90632              JUNCTION     0.04     0.18    -0.27     0  01:35        0.18
  j_90633              JUNCTION     0.04     0.17    -0.31     0  01:44        0.17
  j_90634              JUNCTION     0.19     0.57    -0.31     0  01:44        0.57
  j_90635              JUNCTION     0.10     0.39    -0.31     0  01:44        0.39
  j_90636              JUNCTION     0.07     0.26    -0.31     0  01:45        0.26
  j_90637              JUNCTION     0.11     0.41    -0.30     0  01:45        0.41
  j_90638              JUNCTION     0.05     0.23    -0.25     0  01:35        0.23
  j_90639              JUNCTION     0.04     0.19    -0.21     0  01:35        0.19
  j_90640              JUNCTION     0.02     0.09    -0.20     0  01:35        0.09
  j_90641              JUNCTION     0.14     0.49    -0.35     0  01:42        0.49
  j_90642              JUNCTION     0.09     0.38    -0.35     0  01:41        0.38
  j_90643              JUNCTION     0.09     0.38    -0.34     0  01:41        0.37
  j_90644              JUNCTION     0.02     0.10    -0.05     0  01:35        0.10
  j_90645              JUNCTION     0.01     0.04     0.11     0  01:35        0.04
  j_90646              JUNCTION     0.04     0.14     0.04     0  01:35        0.14
  j_90647              JUNCTION     0.01     0.06     0.09     0  01:30        0.06
  j_90648              JUNCTION     0.02     0.12    -0.17     0  01:35        0.12
  j_90649              JUNCTION     0.03     0.12    -0.09     0  01:35        0.12
  j_90650              JUNCTION     0.04     0.20    -0.18     0  01:35        0.20
  j_90651              JUNCTION     0.03     0.14    -0.30     0  01:45        0.14
  j_90652              JUNCTION     0.03     0.15    -0.27     0  01:35        0.14
  j_90653              JUNCTION     0.01     0.07    -0.17     0  01:35        0.07
  j_90654              JUNCTION     0.10     0.37    -0.23     0  01:41        0.37
  j_90655              JUNCTION     0.13     0.42    -0.24     0  01:41        0.41
  j_90656              JUNCTION     0.13     0.42    -0.27     0  01:41        0.42
  j_90657              JUNCTION     0.01     0.06     0.29     0  01:35        0.06
  j_90658              JUNCTION     0.02     0.09     0.22     0  01:35        0.09
  j_90659              JUNCTION     0.02     0.10     0.12     0  01:35        0.10
  j_90662              JUNCTION     0.02     0.08    -0.24     0  01:35        0.08
  j_90663              JUNCTION     0.04     0.21    -0.22     0  01:40        0.21
  j_90664              JUNCTION     0.02     0.10    -0.17     0  01:35        0.10
  j_90665              JUNCTION     0.20     0.61    -0.36     0  01:44        0.61
  j_90669              JUNCTION     0.09     0.29     0.06     0  01:36        0.28
  j_90670              JUNCTION     0.10     0.31     0.06     0  01:35        0.30
  j_90671              JUNCTION     0.10     0.32     0.06     0  01:35        0.31
  j_90672              JUNCTION     0.06     0.27    -0.19     0  01:40        0.27
  j_90673              JUNCTION     0.10     0.34    -0.19     0  01:40        0.34
  j_90674              JUNCTION     0.11     0.38    -0.22     0  01:40        0.37
  j_90675              JUNCTION     0.07     0.26     0.04     0  01:35        0.26
  j_90676              JUNCTION     0.09     0.29     0.05     0  01:35        0.29
  j_90677              JUNCTION     0.12     0.35     0.06     0  01:35        0.35
  j_90678              JUNCTION     0.03     0.16     0.06     0  01:35        0.16
  j_90679              JUNCTION     0.02     0.09     0.07     0  01:35        0.08
  j_90680              JUNCTION     0.07     0.28    -0.02     0  01:35        0.28
  j_90681              JUNCTION     0.09     0.30    -0.08     0  01:35        0.29
  j_90682              JUNCTION     0.01     0.04     0.01     0  01:35        0.04
  j_90683              JUNCTION     0.08     0.30    -0.15     0  01:40        0.30
  j_90684              JUNCTION     0.04     0.21    -0.15     0  01:40        0.21
  j_90685              JUNCTION     0.01     0.05     0.16     0  01:35        0.05
  j_90686              JUNCTION     0.05     0.25    -0.15     0  01:39        0.25
  j_90688              JUNCTION     0.01     0.06     0.51     0  01:35        0.06
  j_90689              JUNCTION     0.03     0.13    -0.17     0  01:35        0.13
  j_90690              JUNCTION     0.02     0.11    -0.14     0  01:35        0.11
  j_90691              JUNCTION     0.01     0.07     0.17     0  01:35        0.07
  j_90692              JUNCTION     0.01     0.04     0.24     0  01:35        0.04
  j_90693              JUNCTION     0.01     0.03     0.06     0  01:35        0.03
  j_90694              JUNCTION     0.01     0.06     0.12     0  01:35        0.06
  j_90695              JUNCTION     0.01     0.05     0.55     0  01:35        0.05
  j_90696              JUNCTION     0.01     0.07     0.07     0  01:35        0.07
  j_90697              JUNCTION     0.02     0.09     0.02     0  01:35        0.09
  j_90698              JUNCTION     0.02     0.10    -0.02     0  01:35        0.10
  j_90699              JUNCTION     0.02     0.11    -0.07     0  01:35        0.11
  j_90700              JUNCTION     0.01     0.03     0.53     0  01:35        0.03
  j_90701              JUNCTION     0.01     0.03     0.53     0  01:35        0.03
  j_90702              JUNCTION     0.01     0.03     0.53     0  01:35        0.03
  j_90703              JUNCTION     0.08     0.31    -0.17     0  01:40        0.30
  j_90704              JUNCTION     0.02     0.10    -0.12     0  01:35        0.10
  j_90705              JUNCTION     0.02     0.09    -0.17     0  01:41        0.09
  j_90706              JUNCTION     0.10     0.41    -0.13     0  01:40        0.41
  j_90707              JUNCTION     0.05     0.25    -0.13     0  01:40        0.25
  j_90708              JUNCTION     0.02     0.08    -0.03     0  01:34        0.08
  j_90709              JUNCTION     0.02     0.11    -0.09     0  01:35        0.10
  j_90710              JUNCTION     0.02     0.08     0.03     0  01:35        0.08
  j_90724              JUNCTION     0.10     0.32     0.06     0  01:36        0.31
  j_90725              JUNCTION     0.01     0.06     0.06     0  01:36        0.05
  j_90726              JUNCTION     0.01     0.03     0.08     0  01:30        0.03
  j_90727              JUNCTION     0.01     0.03     0.13     0  01:30        0.03
  j_90728              JUNCTION     0.01     0.06     0.12     0  01:30        0.06
  j_90729              JUNCTION     0.01     0.04     0.27     0  01:30        0.04
  j_90730              JUNCTION     0.03     0.14     0.06     0  01:36        0.14
  j_90731              JUNCTION     0.01     0.06     0.16     0  01:30        0.06
  j_90732              JUNCTION     0.00     0.03     0.18     0  01:30        0.03
  j_90733              JUNCTION     0.04     0.20     0.06     0  01:35        0.19
  j_91272              JUNCTION     0.00     0.00     0.17     0  00:00        0.00
  j_91273              JUNCTION     0.00     0.00     0.47     0  00:00        0.00
  j_91274              JUNCTION     0.00     0.00     0.23     0  00:00        0.00
  j_91275              JUNCTION     0.00     0.00     0.47     0  00:00        0.00
  j_91276              JUNCTION     0.00     0.00     0.28     0  00:00        0.00
  j_91277              JUNCTION     0.00     0.00     0.51     0  00:00        0.00
  j_91278              JUNCTION     0.00     0.00     0.35     0  00:00        0.00
  j_91279              JUNCTION     0.00     0.00     0.50     0  00:00        0.00
  j_91292              JUNCTION     0.00     0.00    -0.01     0  00:00        0.00
  j_91293              JUNCTION     0.00     0.00    -0.23     0  01:38        0.00
  j_91294              JUNCTION     0.00     0.00     0.31     0  00:00        0.00
  j_90552              OUTFALL      0.00     0.00    -1.29     0  00:00        0.00
  j_90431              OUTFALL      0.03     0.12    -1.49     0  01:40        0.12
  
  
  *******************
  Node Inflow Summary
  *******************
  
  -------------------------------------------------------------------------------------------------
                                  Maximum  Maximum                  Lateral       Total        Flow
                                  Lateral    Total  Time of Max      Inflow      Inflow     Balance
                                   Inflow   Inflow   Occurrence      Volume      Volume       Error
  Node                 Type           CMS      CMS  days hr:min    10^6 ltr    10^6 ltr     Percent
  -------------------------------------------------------------------------------------------------
  j_9006F              JUNCTION     0.002    0.005     0  01:34     0.00199     0.00223       0.000
  j_90334              JUNCTION     0.007    0.007     0  01:30     0.00875     0.00875       0.000
  j_90335              JUNCTION     0.011    0.011     0  01:35      0.0087      0.0087       0.000
  j_90336              JUNCTION     0.002    0.008     0  01:35     0.00206     0.00831       0.000
  j_90363              JUNCTION     0.012    0.012     0  01:35     0.00975     0.00976       0.000
  j_90364              JUNCTION     0.003    0.023     0  01:34     0.00382      0.0231       0.116
  j_90365              JUNCTION     0.001    0.001     0  01:32    0.000728    0.000873       6.558
  j_90366              JUNCTION     0.004    0.004     0  01:35     0.00363     0.00363       0.000
  j_90367              JUNCTION     0.004    0.029     0  01:34       0.004      0.0305      -0.022
  j_90368              JUNCTION     0.000    0.001     0  01:33           0    8.42e-05       1.918
  j_90369              JUNCTION     0.009    0.009     0  01:35     0.00879     0.00879       0.000
  j_90370              JUNCTION     0.004    0.024     0  01:32     0.00353       0.021      -0.268
  j_90371              JUNCTION     0.006    0.059     0  01:35     0.00416      0.0673       0.013
  j_90372              JUNCTION     0.002    0.002     0  01:35     0.00244     0.00244       0.000
  j_90373              JUNCTION     0.004    0.012     0  01:34     0.00262      0.0116      -0.177
  j_90374              JUNCTION     0.000    0.001     0  01:35           0    0.000118       0.000
  j_90375              JUNCTION     0.005    0.008     0  01:35     0.00382     0.00667      -0.049
  j_90376              JUNCTION     0.001    0.003     0  01:35    0.000728     0.00285       0.000
  j_90377              JUNCTION     0.004    0.007     0  01:35     0.00323     0.00608      -0.611
  j_90378              JUNCTION     0.004    0.011     0  01:35      0.0038      0.0103       0.000
  j_90379              JUNCTION     0.006    0.006     0  01:35     0.00653     0.00653      -0.311
  j_90380              JUNCTION     0.007    0.007     0  01:35     0.00719     0.00719       0.000
  j_90381              JUNCTION     0.004    0.012     0  01:35     0.00433      0.0116       0.727
  j_90382              JUNCTION     0.005    0.124     0  01:36     0.00491       0.169      -0.038
  j_90383              JUNCTION     0.005    0.113     0  01:36     0.00404       0.152       0.005
  j_90384              JUNCTION     0.002    0.012     0  01:35     0.00275      0.0125       0.188
  j_90385              JUNCTION     0.004    0.010     0  01:35      0.0031     0.00973       0.120
  j_90386              JUNCTION     0.006    0.006     0  01:35     0.00661     0.00661      -0.220
  j_90387              JUNCTION     0.004    0.004     0  01:35     0.00396     0.00396       0.000
  j_90388              JUNCTION     0.003    0.007     0  01:35     0.00242      0.0064       2.713
  j_90389              JUNCTION     0.003    0.083     0  01:35     0.00332       0.105       0.000
  j_90390              JUNCTION     0.002    0.062     0  01:35     0.00195      0.0755      -0.017
  j_90391              JUNCTION     0.003    0.020     0  01:35     0.00323      0.0262       0.027
  j_90392              JUNCTION     0.005    0.018     0  01:35     0.00556       0.023       0.202
  j_90393              JUNCTION     0.008    0.015     0  01:35     0.00907      0.0174      -0.138
  j_90394              JUNCTION     0.003    0.006     0  01:35     0.00283     0.00626       0.016
  j_90395              JUNCTION     0.003    0.004     0  01:35      0.0026     0.00342      -0.130
  j_90396              JUNCTION     0.001    0.001     0  01:32    0.000828    0.000831       0.932
  j_90397              JUNCTION     0.004    0.104     0  01:35     0.00379       0.136       0.000
  j_90398              JUNCTION     0.004    0.023     0  01:34     0.00435      0.0272      -0.018
  j_90399              JUNCTION     0.004    0.006     0  01:35     0.00381     0.00559       0.247
  j_90400              JUNCTION     0.003    0.003     0  01:32     0.00254     0.00301      -0.303
  j_90401              JUNCTION     0.004    0.006     0  01:35     0.00354     0.00478       0.021
  j_90402              JUNCTION     0.004    0.005     0  01:35     0.00358     0.00416       0.000
  j_90403              JUNCTION     0.003    0.003     0  01:35     0.00238     0.00238      -0.402
  j_90404              JUNCTION     0.004    0.005     0  01:35     0.00393     0.00527       0.038
  j_90405              JUNCTION     0.004    0.016     0  01:34     0.00433      0.0172       0.012
  j_90406              JUNCTION     0.004    0.012     0  01:34      0.0043      0.0129      -0.015
  j_90407              JUNCTION     0.003    0.003     0  01:35     0.00332     0.00334      -0.409
  j_90408              JUNCTION     0.009    0.009     0  01:35     0.00768     0.00768      -0.172
  j_90427              JUNCTION     0.009    0.017     0  01:34     0.00839      0.0186       0.000
  j_90428              JUNCTION     0.005    0.010     0  01:35     0.00509      0.0102      -0.085
  j_90430              JUNCTION     0.003    0.407     0  01:40     0.00226       0.602       0.009
  j_90433              JUNCTION     0.001    0.001     0  01:35      0.0014      0.0014       0.000
  j_90434              JUNCTION     0.003    0.008     0  01:34     0.00247     0.00742       6.722
  j_90435              JUNCTION     0.005    0.011     0  01:35     0.00427      0.0112       0.147
  j_90436              JUNCTION     0.003    0.030     0  01:35     0.00216      0.0317       0.000
  j_90437              JUNCTION     0.006    0.406     0  01:40     0.00525       0.601       0.062
  j_90438              JUNCTION     0.005    0.374     0  01:40     0.00452       0.553       0.038
  j_90439              JUNCTION     0.003    0.010     0  01:35     0.00261      0.0103       0.000
  j_90440              JUNCTION     0.009    0.009     0  01:35     0.00825     0.00825       0.116
  j_90441              JUNCTION     0.004    0.004     0  01:35     0.00455     0.00455      -0.072
  j_90442              JUNCTION     0.009    0.089     0  01:35      0.0112       0.128       0.130
  j_90443              JUNCTION     0.012    0.365     0  01:39      0.0137       0.537       0.001
  j_90444              JUNCTION     0.005    0.154     0  01:37     0.00433       0.221       0.018
  j_90445              JUNCTION     0.004    0.015     0  01:35     0.00448      0.0148       0.006
  j_90446              JUNCTION     0.004    0.011     0  01:35      0.0038      0.0103       0.149
[...]
  c_905511                1.00   0.40  0.00  0.00  0.00  0.00  0.00  0.60  0.00  0.00
  c_905521                1.00   0.40  0.00  0.00  0.00  0.00  0.00  0.60  0.00  0.00
  c_905541                1.00   0.40  0.30  0.00  0.29  0.00  0.01  0.00  0.01  0.00
  c_905551                1.00   0.40  0.00  0.00  0.20  0.00  0.00  0.40  0.00  0.00
  c_905561                1.00   0.40  0.00  0.00  0.60  0.00  0.00  0.00  0.00  0.00
  c_905571                1.00   0.40  0.00  0.00  0.60  0.00  0.00  0.00  0.00  0.00
  c_905572                1.00   0.40  0.00  0.00  0.60  0.00  0.00  0.00  0.08  0.00
  c_905581                1.00   0.40  0.00  0.00  0.28  0.00  0.00  0.31  0.19  0.00
  c_905591                1.00   0.40  0.00  0.00  0.60  0.00  0.00  0.00  0.30  0.00
  c_905601                1.00   0.40  0.00  0.00  0.60  0.00  0.00  0.00  0.05  0.00
  c_905602                1.00   0.40  0.16  0.00  0.44  0.00  0.00  0.00  0.52  0.00
  c_905611                1.00   0.40  0.06  0.00  0.55  0.00  0.00  0.00  0.27  0.00
  c_905621                1.00   0.40  0.06  0.00  0.55  0.00  0.00  0.00  0.37  0.00
  c_905622                1.00   0.40  0.10  0.00  0.50  0.00  0.00  0.00  0.45  0.00
  c_905631                1.00   0.40  0.00  0.00  0.24  0.00  0.00  0.35  0.03  0.00
  c_905632                1.00   0.40  0.00  0.00  0.60  0.00  0.00  0.00  0.00  0.00
  c_905641                1.00   0.40  0.00  0.00  0.48  0.00  0.00  0.11  0.09  0.00
  c_905651                1.00   0.40  0.00  0.00  0.25  0.00  0.00  0.36  0.09  0.00
  c_905661                1.00   0.40  0.00  0.00  0.18  0.00  0.00  0.42  0.05  0.00
  c_905681                1.00   0.40  0.00  0.00  0.60  0.00  0.00  0.00  0.22  0.00
  c_905682                1.00   0.40  0.00  0.00  0.00  0.00  0.00  0.60  0.00  0.00
  c_905691                1.00   0.40  0.27  0.00  0.34  0.00  0.00  0.00  0.56  0.00
  c_905701                1.00   0.40  0.00  0.00  0.00  0.00  0.00  0.60  0.00  0.00
  c_905711                1.00   0.40  0.00  0.00  0.35  0.00  0.00  0.25  0.23  0.00
  c_905721                1.00   0.40  0.00  0.00  0.56  0.00  0.00  0.04  0.02  0.00
  c_905722                1.00   0.40  0.00  0.00  0.29  0.00  0.00  0.31  0.10  0.00
  c_905731                1.00   0.40  0.00  0.00  0.33  0.00  0.00  0.27  0.00  0.00
  c_905732                1.00   0.40  0.00  0.00  0.27  0.00  0.00  0.33  0.19  0.00
  c_905741                1.00   0.40  0.00  0.00  0.60  0.00  0.00  0.00  0.18  0.00
  c_905751                1.00   0.40  0.01  0.00  0.59  0.00  0.00  0.00  0.16  0.00
  c_905752                1.00   0.40  0.00  0.00  0.60  0.00  0.00  0.00  0.02  0.00
  c_905761                1.00   0.40  0.01  0.00  0.59  0.00  0.00  0.00  0.08  0.00
  c_905771                1.00   0.40  0.00  0.00  0.60  0.00  0.00  0.00  0.09  0.00
  c_905781                1.00   0.40  0.00  0.00  0.60  0.00  0.00  0.00  0.03  0.00
  c_905791                1.00   0.40  0.00  0.00  0.60  0.00  0.00  0.00  0.14  0.00
  c_905811                1.00   0.45  0.19  0.00  0.35  0.00  0.00  0.00  0.55  0.00
  c_905821                1.00   0.40  0.00  0.00  0.60  0.00  0.00  0.00  0.00  0.00
  c_905831                1.00   0.40  0.26  0.00  0.35  0.00  0.00  0.00  0.56  0.00
  c_905841                1.00   0.40  0.06  0.00  0.55  0.00  0.00  0.00  0.53  0.00
  c_905851                1.00   0.40  0.00  0.00  0.60  0.00  0.00  0.00  0.10  0.00
  c_905852                1.00   0.40  0.00  0.00  0.27  0.00  0.00  0.34  0.22  0.00
  c_905861                1.00   0.40  0.00  0.00  0.60  0.00  0.00  0.00  0.00  0.00
  c_905862                1.00   0.40  0.00  0.00  0.24  0.00  0.00  0.36  0.09  0.00
  c_905871                1.00   0.40  0.00  0.00  0.60  0.00  0.00  0.00  0.09  0.00
  c_905881                1.00   0.40  0.00  0.00  0.31  0.00  0.00  0.30  0.14  0.00
  c_905891                1.00   0.40  0.00  0.00  0.60  0.00  0.00  0.00  0.44  0.00
  c_905892                1.00   0.40  0.31  0.00  0.30  0.00  0.00  0.00  0.42  0.00
  c_905901                1.00   0.49  0.10  0.00  0.41  0.00  0.00  0.00  0.47  0.00
  c_905902                1.00   0.59  0.00  0.00  0.28  0.00  0.00  0.13  0.01  0.00
  c_905921                1.00   0.40  0.00  0.00  0.60  0.00  0.00  0.00  0.19  0.00
  c_905931                1.00   0.40  0.00  0.00  0.60  0.00  0.00  0.00  0.00  0.00
  c_905941                1.00   0.40  0.00  0.00  0.60  0.00  0.00  0.00  0.21  0.00
  c_905942                1.00   0.40  0.01  0.00  0.40  0.00  0.20  0.00  0.00  0.00
  c_905951                1.00   0.40  0.00  0.00  0.25  0.00  0.00  0.35  0.10  0.00
  c_905961                1.00   0.40  0.00  0.00  0.26  0.00  0.00  0.35  0.11  0.00
  c_905971                1.00   0.40  0.05  0.00  0.55  0.00  0.00  0.00  0.38  0.00
  c_905981                1.00   0.40  0.22  0.00  0.38  0.00  0.00  0.00  0.48  0.00
  c_905982                1.00   0.45  0.17  0.00  0.38  0.00  0.00  0.00  0.33  0.00
  c_905991                1.00   0.40  0.00  0.00  0.60  0.00  0.00  0.00  0.00  0.00
  c_906001                1.00   0.45  0.16  0.00  0.38  0.00  0.00  0.00  0.49  0.00
  c_906011                1.00   0.61  0.03  0.00  0.35  0.00  0.00  0.00  0.48  0.00
  c_906031                1.00   0.40  0.00  0.00  0.33  0.00  0.00  0.27  0.00  0.00
  c_906041                1.00   0.40  0.29  0.00  0.31  0.00  0.00  0.00  0.49  0.00
  c_906051                1.00   0.40  0.00  0.00  0.60  0.00  0.00  0.00  0.38  0.00
  c_906052                1.00   0.40  0.00  0.00  0.31  0.00  0.00  0.29  0.08  0.00
  c_906061                1.00   0.40  0.01  0.00  0.60  0.00  0.00  0.00  0.32  0.00
  c_906071                1.00   0.40  0.00  0.00  0.60  0.00  0.00  0.00  0.27  0.00
  c_906081                1.00   0.40  0.00  0.00  0.60  0.00  0.00  0.00  0.30  0.00
  c_906082                1.00   0.40  0.00  0.00  0.60  0.00  0.00  0.00  0.37  0.00
  c_906091                1.00   0.40  0.16  0.00  0.45  0.00  0.00  0.00  0.56  0.00
  c_906101                1.00   0.40  0.16  0.00  0.45  0.00  0.00  0.00  0.42  0.00
  c_906111                1.00   0.40  0.00  0.00  0.43  0.00  0.00  0.18  0.30  0.00
  c_906112                1.00   0.40  0.00  0.00  0.34  0.00  0.00  0.26  0.01  0.00
  c_906121                1.00   0.40  0.20  0.00  0.41  0.00  0.00  0.00  0.54  0.00
  c_906131                1.00   0.59  0.04  0.00  0.37  0.00  0.00  0.00  0.55  0.00
  c_906132                1.00   0.62  0.01  0.00  0.37  0.00  0.00  0.00  0.56  0.00
  c_906151                1.00   0.40  0.00  0.00  0.22  0.00  0.00  0.39  0.12  0.00
  c_906161                1.00   0.40  0.20  0.00  0.41  0.00  0.00  0.00  0.56  0.00
  c_906171                1.00   0.59  0.03  0.00  0.37  0.00  0.00  0.00  0.56  0.00
  c_906181                1.00   0.40  0.23  0.00  0.37  0.00  0.00  0.00  0.56  0.00
  c_906191                1.00   0.40  0.00  0.00  0.60  0.00  0.00  0.00  0.19  0.00
  c_906192                1.00   0.40  0.00  0.00  0.60  0.00  0.00  0.00  0.00  0.00
  c_906201                1.00   0.40  0.00  0.00  0.59  0.00  0.00  0.01  0.00  0.00
  c_906202                1.00   0.40  0.00  0.00  0.15  0.00  0.00  0.45  0.10  0.00
  c_906211                1.00   0.40  0.00  0.00  0.60  0.00  0.00  0.00  0.02  0.00
  c_906231                1.00   0.40  0.00  0.00  0.60  0.00  0.00  0.00  0.14  0.00
  c_906241                1.00   0.40  0.01  0.00  0.58  0.00  0.00  0.01  0.17  0.00
  c_906261                1.00   0.40  0.03  0.00  0.58  0.00  0.00  0.00  0.27  0.00
  c_906271                1.00   0.40  0.00  0.00  0.58  0.00  0.00  0.03  0.07  0.00
  c_906272                1.00   0.40  0.00  0.00  0.60  0.00  0.00  0.00  0.00  0.00
  c_906281                1.00   0.40  0.00  0.00  0.21  0.00  0.00  0.39  0.16  0.00
  c_906291                1.00   0.40  0.19  0.00  0.41  0.00  0.00  0.00  0.46  0.00
  c_906301                1.00   0.40  0.00  0.00  0.00  0.00  0.00  0.60  0.00  0.00
  c_906321                1.00   0.59  0.41  0.00  0.00  0.00  0.00  0.00  0.00  0.00
  c_906322                1.00   0.40  0.00  0.00  0.30  0.00  0.00  0.30  0.00  0.00
  c_906331                1.00   0.40  0.00  0.00  0.60  0.00  0.00  0.00  0.24  0.00
  c_906341                1.00   0.40  0.00  0.00  0.28  0.00  0.00  0.32  0.09  0.00
  c_906342                1.00   0.40  0.01  0.00  0.58  0.00  0.00  0.00  0.00  0.00
  c_906351                1.00   0.42  0.17  0.00  0.41  0.00  0.00  0.00  0.29  0.00
  c_906352                1.00   0.40  0.00  0.00  0.40  0.00  0.00  0.20  0.01  0.00
  c_906361                1.00   0.40  0.01  0.00  0.44  0.00  0.00  0.15  0.20  0.00
  c_906371                1.00   0.40  0.00  0.00  0.60  0.00  0.00  0.00  0.30  0.00
  c_906381                1.00   0.40  0.00  0.00  0.23  0.00  0.00  0.37  0.05  0.00
  c_906391                1.00   0.40  0.00  0.00  0.60  0.00  0.00  0.00  0.45  0.00
  c_906401                1.00   0.40  0.41  0.00  0.02  0.00  0.17  0.00  0.00  0.00
  c_906402                1.00   0.40  0.00  0.00  0.24  0.00  0.00  0.36  0.12  0.00
  c_906411                1.00   0.40  0.00  0.00  0.60  0.00  0.00  0.00  0.10  0.00
  c_906421                1.00   0.40  0.00  0.00  0.60  0.00  0.00  0.00  0.28  0.00
  c_906431                1.00   0.40  0.00  0.00  0.60  0.00  0.00  0.00  0.17  0.00
  c_906441                1.00   0.40  0.00  0.00  0.00  0.00  0.00  0.60  0.00  0.00
  c_906461                1.00   0.40  0.00  0.00  0.60  0.00  0.00  0.00  0.56  0.00
  c_906471                1.00   0.55  0.03  0.00  0.40  0.00  0.00  0.02  0.54  0.00
  c_906481                1.00   0.40  0.20  0.00  0.40  0.00  0.00  0.00  0.56  0.00
  c_906491                1.00   0.70  0.01  0.00  0.26  0.00  0.00  0.03  0.05  0.00
  c_906492                1.00   0.40  0.00  0.00  0.00  0.00  0.00  0.60  0.00  0.00
  c_906501                1.00   0.40  0.00  0.00  0.60  0.00  0.00  0.00  0.56  0.00
  c_906511                1.00   0.40  0.00  0.00  0.60  0.00  0.00  0.00  0.47  0.00
  c_906521                1.00   0.40  0.05  0.00  0.56  0.00  0.00  0.00  0.16  0.00
  c_906531                1.00   0.44  0.15  0.00  0.41  0.00  0.00  0.00  0.55  0.00
  c_906541                1.00   0.40  0.01  0.00  0.60  0.00  0.00  0.00  0.21  0.00
  c_906561                1.00   0.40  0.00  0.00  0.51  0.00  0.08  0.00  0.00  0.00
  c_906562                1.00   0.40  0.00  0.00  0.60  0.00  0.00  0.00  0.00  0.00
  c_906563                1.00   0.40  0.00  0.00  0.23  0.00  0.00  0.37  0.12  0.00
  c_906581                1.00   0.58  0.06  0.00  0.36  0.00  0.00  0.00  0.55  0.00
  c_906591                1.00   0.40  0.00  0.00  0.00  0.00  0.00  0.60  0.00  0.00
  c_906592                1.00   0.40  0.19  0.00  0.42  0.00  0.00  0.00  0.55  0.00
  c_906621                1.00   0.40  0.00  0.00  0.00  0.00  0.00  0.60  0.00  0.00
  c_906622                1.00   0.40  0.00  0.00  0.38  0.22  0.00  0.00  0.38  0.00
  c_906631                1.00   0.40  0.00  0.00  0.21  0.00  0.00  0.39  0.00  0.00
  c_906641                1.00   0.40  0.00  0.00  0.26  0.00  0.00  0.35  0.00  0.00
  c_906651                1.00   0.40  0.00  0.00  0.58  0.00  0.00  0.02  0.00  0.00
  c_906701                1.00   0.40  0.00  0.00  0.60  0.00  0.00  0.00  0.00  0.00
  c_906731                1.00   0.40  0.00  0.00  0.40  0.00  0.00  0.20  0.00  0.00
  c_906741                1.00   0.40  0.00  0.00  0.60  0.00  0.00  0.00  0.00  0.00
  c_906742                1.00   0.40  0.00  0.00  0.59  0.00  0.00  0.01  0.12  0.00
  c_906751                1.00   0.42  0.04  0.00  0.55  0.00  0.00  0.00  0.20  0.00
  c_906761                1.00   0.40  0.00  0.00  0.60  0.00  0.00  0.00  0.01  0.00
  c_906771                1.00   0.40  0.00  0.00  0.60  0.00  0.00  0.01  0.01  0.00
  c_906772                1.00   0.40  0.00  0.00  0.60  0.00  0.00  0.01  0.00  0.00
  c_906781                1.00   0.40  0.03  0.00  0.58  0.00  0.00  0.00  0.37  0.00
  c_906791                1.00   0.42  0.17  0.00  0.40  0.00  0.00  0.00  0.42  0.00
  c_906801                1.00   0.40  0.00  0.00  0.42  0.00  0.00  0.18  0.07  0.00
  c_906811                1.00   0.40  0.00  0.00  0.60  0.00  0.00  0.01  0.33  0.00
  c_906821                1.00   0.40  0.08  0.00  0.53  0.00  0.00  0.00  0.56  0.00
  c_906831                1.00   0.40  0.00  0.00  0.24  0.00  0.00  0.36  0.00  0.00
  c_906832                1.00   0.40  0.00  0.00  0.60  0.00  0.00  0.00  0.36  0.00
  c_906841                1.00   0.40  0.00  0.00  0.32  0.00  0.00  0.28  0.02  0.00
  c_906851                1.00   0.40  0.00  0.00  0.00  0.00  0.00  0.60  0.00  0.00
  c_906861                1.00   0.40  0.00  0.00  0.60  0.00  0.00  0.00  0.27  0.00
  c_906862                1.00   0.40  0.13  0.00  0.47  0.00  0.00  0.00  0.33  0.00
  c_906891                1.00   0.40  0.00  0.00  0.00  0.00  0.00  0.60  0.00  0.00
  c_906892                1.00   0.40  0.00  0.00  0.00  0.00  0.00  0.60  0.00  0.00
  c_906901                1.00   0.40  0.00  0.00  0.60  0.00  0.00  0.00  0.49  0.00
  c_906911                1.00   0.40  0.00  0.00  0.00  0.00  0.00  0.60  0.00  0.00
  c_906921                1.00   0.40  0.06  0.00  0.55  0.00  0.00  0.00  0.56  0.00
  c_906931                1.00   0.45  0.55  0.00  0.00  0.00  0.00  0.00  0.00  0.00
  c_906932                1.00   0.40  0.00  0.00  0.00  0.00  0.00  0.60  0.00  0.00
  c_906941                1.00   0.40  0.60  0.00  0.00  0.00  0.00  0.00  0.00  0.00
  c_906951                1.00   0.40  0.00  0.00  0.00  0.00  0.00  0.60  0.00  0.00
  c_906961                1.00   0.40  0.00  0.00  0.60  0.00  0.00  0.00  0.54  0.00
  c_906971                1.00   0.40  0.00  0.00  0.60  0.00  0.00  0.00  0.55  0.00
  c_906981                1.00   0.40  0.00  0.00  0.60  0.00  0.00  0.00  0.54  0.00
  c_906991                1.00   0.40  0.00  0.00  0.60  0.00  0.00  0.00  0.51  0.00
  c_906992                1.00   0.40  0.00  0.00  0.60  0.00  0.00  0.00  0.47  0.00
  c_907001                1.00   0.40  0.00  0.00  0.00  0.00  0.00  0.60  0.00  0.00
  c_907011                1.00   0.40  0.00  0.00  0.00  0.00  0.00  0.60  0.00  0.00
  c_907021                1.00   0.40  0.00  0.00  0.00  0.00  0.00  0.60  0.00  0.00
  c_907031                1.00   0.40  0.00  0.00  0.60  0.00  0.00  0.00  0.19  0.00
  c_907032                1.00   0.40  0.00  0.00  0.29  0.00  0.00  0.31  0.13  0.00
  c_907033                1.00   0.40  0.00  0.00  0.51  0.00  0.00  0.10  0.14  0.00
  c_907041                1.00   0.40  0.00  0.00  0.28  0.00  0.00  0.32  0.01  0.00
  c_907042                1.00   0.40  0.22  0.00  0.38  0.00  0.00  0.00  0.34  0.00
  c_907051                1.00   0.70  0.30  0.00  0.00  0.00  0.00  0.00  0.00  0.00
  c_907061                1.00   0.40  0.00  0.00  0.60  0.00  0.00  0.00  0.01  0.00
  c_907062                1.00   0.40  0.00  0.00  0.60  0.00  0.00  0.00  0.27  0.00
  c_907071                1.00   0.40  0.00  0.00  0.24  0.00  0.00  0.36  0.00  0.00
  c_907081                1.00   0.40  0.00  0.00  0.15  0.00  0.00  0.45  0.11  0.00
  c_907091                1.00   0.40  0.00  0.00  0.60  0.00  0.00  0.00  0.54  0.00
  c_907101                1.00   0.40  0.09  0.00  0.51  0.00  0.00  0.00  0.53  0.00
  c_907241                1.00   0.40  0.00  0.00  0.60  0.00  0.00  0.00  0.00  0.00
  c_907242                1.00   0.40  0.00  0.00  0.60  0.00  0.00  0.00  0.00  0.00
  c_907251                1.00   0.40  0.00  0.00  0.54  0.00  0.00  0.07  0.47  0.00
  c_907261                1.00   0.40  0.23  0.00  0.38  0.00  0.00  0.00  0.54  0.00
  c_907271                1.00   0.62  0.04  0.00  0.34  0.00  0.00  0.00  0.55  0.00
  c_907281                1.00   0.40  0.60  0.00  0.00  0.00  0.00  0.00  0.00  0.00
  c_907291                1.00   0.40  0.09  0.00  0.51  0.00  0.00  0.00  0.56  0.00
  c_907301                1.00   0.40  0.00  0.00  0.60  0.00  0.00  0.00  0.56  0.00
  c_907311                1.00   0.40  0.00  0.00  0.60  0.00  0.00  0.00  0.54  0.00
  c_907321                1.00   0.40  0.22  0.00  0.38  0.00  0.00  0.00  0.56  0.00
  c_907331                1.00   0.40  0.00  0.00  0.60  0.00  0.00  0.00  0.35  0.00
  c_907332                1.00   0.40  0.00  0.00  0.52  0.00  0.00  0.08  0.16  0.00
  c_912721                1.00   1.00  0.00  0.00  0.00  0.00  0.00  0.00  0.00  0.00
  c_912731                1.00   1.00  0.00  0.00  0.00  0.00  0.00  0.00  0.00  0.00
  c_912741                1.00   1.00  0.00  0.00  0.00  0.00  0.00  0.00  0.00  0.00
  c_912751                1.00   1.00  0.00  0.00  0.00  0.00  0.00  0.00  0.00  0.00
  c_912761                1.00   1.00  0.00  0.00  0.00  0.00  0.00  0.00  0.00  0.00
  c_912771                1.00   1.00  0.00  0.00  0.00  0.00  0.00  0.00  0.00  0.00
  c_912781                1.00   1.00  0.00  0.00  0.00  0.00  0.00  0.00  0.00  0.00
  c_912791                1.00   1.00  0.00  0.00  0.00  0.00  0.00  0.00  0.00  0.00
  c_912931                1.00   0.55  0.45  0.00  0.00  0.00  0.00  0.00  0.00  0.00
  c_912932                1.00   0.54  0.00  0.00  0.04  0.00  0.00  0.42  0.01  0.00
  c_912941                1.00   1.00  0.00  0.00  0.00  0.00  0.00  0.00  0.00  0.00
  
  
  *************************
  Conduit Surcharge Summary
  *************************
  
  ----------------------------------------------------------------------------
                                                           Hours        Hours 
                         --------- Hours Full --------   Above Full   Capacity
  Conduit                Both Ends  Upstream  Dnstream   Normal Flow   Limited
  ----------------------------------------------------------------------------
  c_903642                    0.01      0.01      0.01      0.23         0.01
  c_904421                    0.01      0.01      0.01      0.37         0.01
  c_904592                    0.01      0.01      0.01      0.08         0.01
  c_904951                    0.01      0.01      0.14      0.01         0.01
  c_904952                    0.32      0.32      0.33      0.01         0.01
  c_905571                    0.01      0.01      0.01      0.25         0.01
  c_905632                    0.01      0.01      0.01      0.72         0.01
  c_905741                    0.33      0.33      0.38      0.01         0.01
  c_905751                    0.35      0.35      0.54      0.01         0.01
  c_905861                    0.01      0.01      0.01      0.77         0.01
  c_905921                    0.12      0.12      0.24      0.01         0.01
  c_905931                    0.01      0.01      0.01      0.70         0.01
  c_905942                    0.11      0.11      0.24      0.48         0.01
  c_906201                    0.01      0.01      0.01      0.68         0.01
  c_906241                    0.05      0.05      0.31      0.01         0.01
  c_906261                    0.01      0.01      0.24      0.01         0.01
  c_906271                    0.24      0.24      0.28      0.01         0.01
  c_906322                    0.01      0.01      0.01      0.09         0.01
  c_906631                    0.01      0.01      0.01      0.07         0.01
  c_906651                    0.46      0.46      0.46      0.01         0.01
  c_906731                    0.15      0.15      0.15      0.07         0.01
  c_906741                    0.01      0.01      0.01      0.34         0.01
  c_906781                    0.01      0.01      0.24      0.01         0.01
  c_907061                    0.01      0.01      0.10      0.01         0.01
  c_907062                    0.01      0.01      0.12      0.01         0.01
  

  Analysis begun on:  Sun Jun 12 01:37:25 2022
  Analysis ended on:  Sun Jun 12 01:37:30 2022
  Total elapsed time: 00:00:05