
  EPA STORM WATER MANAGEMENT MODEL - VERSION 5.1 (Build 5.1.015)
  --------------------------------------------------------------

  WARNING 04: minimum elevation drop used for Conduit c_903642
  WARNING 04: minimum elevation drop used for Conduit c_903651
  WARNING 04: minimum elevation drop used for Conduit c_903672
  WARNING 04: minimum elevation drop used for Conduit c_905571
  WARNING 04: minimum elevation drop used for Conduit c_905632
  WARNING 04: minimum elevation drop used for Conduit c_905821
  WARNING 04: minimum elevation drop used for Conduit c_905861
  WARNING 04: minimum elevation drop used for Conduit c_905931
  WARNING 04: minimum elevation drop used for Conduit c_906201
  WARNING 04: minimum elevation drop used for Conduit c_906322
  WARNING 04: minimum elevation drop used for Conduit c_906631
  WARNING 04: minimum elevation drop used for Conduit c_906641
  WARNING 04: minimum elevation drop used for Conduit c_906651
  WARNING 04: minimum elevation drop used for Conduit c_906731
  WARNING 04: minimum elevation drop used for Conduit c_906741
  WARNING 04: minimum elevation drop used for Conduit c_907242
  
  *********************
  Rainfall File Summary
  *********************
  Station    First        Last         Recording   Periods    Periods    Periods
  ID         Date         Date         Frequency  w/Precip    Missing    Malfunc.
  -------------------------------------------------------------------------------
  R1         01/05/2014   01/05/2014       5 min        87          0          0
  R1         01/05/2014   01/05/2014       5 min        87          0          0
  R1         01/05/2014   01/05/2014       5 min        87          0          0

  
  *********************************************************
  NOTE: The summary statistics displayed in this report are
  based on results found at every computational time step,  
  not just on results from each reporting time step.
  *********************************************************
  
  ****************
  Analysis Options
  ****************
  Flow Units ............... CMS
  Process Models:
    Rainfall/Runoff ........ YES
    RDII ................... NO
    Snowmelt ............... NO
    Groundwater ............ NO
    Flow Routing ........... YES
    Ponding Allowed ........ NO
    Water Quality .......... NO
  Infiltration Method ...... HORTON
  Flow Routing Method ...... DYNWAVE
  Surcharge Method ......... EXTRAN
  Starting Date ............ 01/05/2014 00:00:00
  Ending Date .............. 01/05/2014 08:05:00
  Antecedent Dry Days ...... 0.0
  Report Time Step ......... 00:05:00
  Wet Time Step ............ 00:01:00
  Dry Time Step ............ 00:10:00
  Routing Time Step ........ 1.00 sec
  Variable Time Step ....... YES
  Maximum Trials ........... 12
  Number of Threads ........ 2
  Head Tolerance ........... 0.000200 m
  
  
  **************************        Volume         Depth
  Runoff Quantity Continuity     hectare-m            mm
  **************************     ---------       -------
  Total Precipitation ......         0.289        10.417
  Evaporation Loss .........         0.008         0.297
  Infiltration Loss ........         0.018         0.655
  Surface Runoff ...........         0.164         5.923
  Final Storage ............         0.099         3.576
  Continuity Error (%) .....        -0.318
  
  
  **************************        Volume        Volume
  Flow Routing Continuity        hectare-m      10^6 ltr
  **************************     ---------     ---------
  Dry Weather Inflow .......         0.000         0.000
  Wet Weather Inflow .......         0.164         1.644
  Groundwater Inflow .......         0.000         0.000
  RDII Inflow ..............         0.000         0.000
  External Inflow ..........         0.000         0.000
  External Outflow .........         0.164         1.641
  Flooding Loss ............         0.000         0.000
  Evaporation Loss .........         0.000         0.000
  Exfiltration Loss ........         0.000         0.000
  Initial Stored Volume ....         0.000         0.000
  Final Stored Volume ......         0.001         0.006
  Continuity Error (%) .....        -0.180
  
  
  *************************
  Highest Continuity Errors
  *************************
  Node j_90434 (4.53%)
  Node j_90670 (2.43%)
  Node j_90388 (2.03%)
  Node j_90705 (1.64%)
  Node j_90496 (1.54%)
  
  
  ***************************
  Time-Step Critical Elements
  ***************************
  Link c_904312 (3.40%)
  
  
  ********************************
  Highest Flow Instability Indexes
  ********************************
  All links are stable.
  
  
  *************************
  Routing Time Step Summary
  *************************
  Minimum Time Step           :     0.65 sec
  Average Time Step           :     1.00 sec
  Maximum Time Step           :     1.00 sec
  Percent in Steady State     :     1.03
  Average Iterations per Step :     2.00
  Percent Not Converging      :     0.00
  Time Step Frequencies       :
      1.000 -  0.871 sec      :   100.00 %
      0.871 -  0.758 sec      :     0.00 %
      0.758 -  0.660 sec      :     0.00 %
      0.660 -  0.574 sec      :     0.00 %
      0.574 -  0.500 sec      :     0.00 %
  
  
  ***************************
  Subcatchment Runoff Summary
  ***************************
  
  ------------------------------------------------------------------------------------------------------------------------------
                            Total      Total      Total      Total     Imperv       Perv      Total       Total     Peak  Runoff
                           Precip      Runon       Evap      Infil     Runoff     Runoff     Runoff      Runoff   Runoff   Coeff
  Subcatchment                 mm         mm         mm         mm         mm         mm         mm    10^6 ltr      CMS
  ------------------------------------------------------------------------------------------------------------------------------
  sub_9006F                 10.42       0.00       0.30       0.54       2.90       2.75       5.66        0.00     0.00   0.543
  sub_90334                 10.42       0.00       0.29       1.43       0.53       7.27       7.79        0.01     0.00   0.748
  sub_90335                 10.42       0.00       0.30       0.33       3.47       1.67       5.14        0.01     0.00   0.494
  sub_90336                 10.42       0.00       0.30       1.10       1.40       5.60       7.00        0.00     0.00   0.672
  sub_90363                 10.42       0.00       0.30       0.33       3.46       1.68       5.15        0.01     0.00   0.494
  sub_90364                 10.42       0.00       0.30       1.22       1.11       6.16       7.27        0.00     0.00   0.698
  sub_90365                 10.42       0.00       0.29       1.63       0.00       8.26       8.26        0.00     0.00   0.793
  sub_90366                 10.42       0.00       0.30       0.55       2.88       2.79       5.67        0.00     0.00   0.545
  sub_90367                 10.42       0.00       0.30       0.93       1.87       4.70       6.58        0.00     0.00   0.632
  sub_90369                 10.42       0.00       0.30       0.66       2.58       3.37       5.95        0.01     0.00   0.571
  sub_90370                 10.42       0.00       0.30       0.45       3.16       2.26       5.42        0.00     0.00   0.521
  sub_90371                 10.42       0.00       0.30       0.23       3.73       1.18       4.91        0.00     0.00   0.471
  sub_90372                 10.42       0.00       0.30       1.03       1.60       5.22       6.82        0.00     0.00   0.655
  sub_90373                 10.42       0.00       0.30       0.07       4.16       0.36       4.52        0.00     0.00   0.434
  sub_90375                 10.42       0.00       0.30       0.33       3.48       1.65       5.13        0.00     0.00   0.493
  sub_90376                 10.42       0.00       0.30       0.58       2.80       2.95       5.75        0.00     0.00   0.552
  sub_90377                 10.42       0.00       0.30       0.34       3.43       1.75       5.18        0.00     0.00   0.497
  sub_90378                 10.42       0.00       0.30       0.46       3.12       2.33       5.45        0.00     0.00   0.524
  sub_90379                 10.42       0.00       0.30       0.77       2.29       3.91       6.20        0.01     0.00   0.596
  sub_90380                 10.42       0.00       0.30       0.70       2.48       3.56       6.04        0.01     0.00   0.580
  sub_90381                 10.42       0.00       0.30       0.71       2.45       3.60       6.06        0.00     0.00   0.581
  sub_90382                 10.42       0.00       0.30       0.59       2.78       2.99       5.77        0.01     0.00   0.554
  sub_90383                 10.42       0.00       0.30       0.50       3.01       2.55       5.56        0.00     0.00   0.534
  sub_90384                 10.42       0.00       0.30       0.96       1.78       4.88       6.66        0.00     0.00   0.640
  sub_90385                 10.42       0.00       0.30       0.43       3.21       2.16       5.37        0.00     0.00   0.516
  sub_90386                 10.42       0.00       0.30       0.78       2.27       3.95       6.22        0.01     0.00   0.597
  sub_90387                 10.42       0.00       0.30       0.61       2.73       3.09       5.81        0.00     0.00   0.558
  sub_90388                 10.42       0.00       0.30       0.60       2.74       3.05       5.80        0.00     0.00   0.557
  sub_90389                 10.42       0.00       0.30       0.67       2.57       3.39       5.95        0.00     0.00   0.572
  sub_90390                 10.42       0.00       0.30       0.84       2.11       4.26       6.37        0.00     0.00   0.611
  sub_90391                 10.42       0.00       0.29       1.63       0.00       8.26       8.26        0.00     0.00   0.793
  sub_90392                 10.42       0.00       0.30       1.04       1.57       5.29       6.85        0.01     0.00   0.658
  sub_90393                 10.42       0.00       0.30       1.03       1.60       5.22       6.82        0.01     0.00   0.655
  sub_90394                 10.42       0.00       0.30       0.98       1.74       4.96       6.70        0.00     0.00   0.643
  sub_90395                 10.42       0.00       0.30       0.38       3.34       1.92       5.26        0.00     0.00   0.505
  sub_90396                 10.42       0.00       0.30       0.00       4.35       0.00       4.35        0.00     0.00   0.418
  sub_90397                 10.42       0.00       0.30       0.88       2.00       4.46       6.46        0.00     0.00   0.620
  sub_90398                 10.42       0.00       0.30       0.92       1.90       4.66       6.56        0.00     0.00   0.629
  sub_90399                 10.42       0.00       0.30       0.51       2.98       2.61       5.59        0.00     0.00   0.536
  sub_90400                 10.42       0.00       0.30       0.61       2.72       3.10       5.82        0.00     0.00   0.559
  sub_90401                 10.42       0.00       0.30       0.36       3.39       1.82       5.21        0.00     0.00   0.501
  sub_90402                 10.42       0.00       0.30       0.38       3.33       1.93       5.27        0.00     0.00   0.506
  sub_90403                 10.42       0.00       0.30       0.62       2.71       3.12       5.83        0.00     0.00   0.560
  sub_90404                 10.42       0.00       0.30       0.65       2.62       3.28       5.91        0.00     0.00   0.567
  sub_90405                 10.42       0.00       0.30       0.71       2.45       3.60       6.06        0.00     0.00   0.581
  sub_90406                 10.42       0.00       0.30       0.86       2.05       4.36       6.42        0.00     0.00   0.616
  sub_90407                 10.42       0.00       0.30       0.84       2.10       4.28       6.38        0.00     0.00   0.612
  sub_90408                 10.42       0.00       0.30       0.54       2.91       2.74       5.65        0.01     0.00   0.542
  sub_90427                 10.42       0.00       0.30       0.63       2.66       3.21       5.87        0.01     0.00   0.564
  sub_90428                 10.42       0.00       0.30       0.77       2.30       3.90       6.20        0.01     0.00   0.595
  sub_90430                 10.42       0.00       0.30       0.37       3.37       1.86       5.23        0.00     0.00   0.502
  sub_90431                 10.42       0.00       0.30       0.59       2.77       2.99       5.77        0.00     0.00   0.554
  sub_90433                 10.42       0.00       0.30       0.81       2.18       4.13       6.31        0.00     0.00   0.606
  sub_90434                 10.42       0.00       0.30       0.29       3.57       1.48       5.05        0.00     0.00   0.485
  sub_90435                 10.42       0.00       0.30       0.52       2.97       2.63       5.59        0.00     0.00   0.537
  sub_90436                 10.42       0.00       0.30       0.26       3.65       1.32       4.98        0.00     0.00   0.478
  sub_90437                 10.42       0.00       0.30       0.41       3.25       2.08       5.34        0.01     0.00   0.512
  sub_90438                 10.42       0.00       0.30       0.58       2.80       2.94       5.75        0.00     0.00   0.552
  sub_90439                 10.42       0.00       0.30       0.59       2.78       2.98       5.76        0.00     0.00   0.553
  sub_90440                 10.42       0.00       0.30       0.66       2.58       3.37       5.95        0.01     0.00   0.571
  sub_90441                 10.42       0.00       0.30       1.09       1.45       5.51       6.96        0.00     0.00   0.668
  sub_90442                 10.42       0.00       0.30       1.28       0.94       6.47       7.42        0.01     0.01   0.712
  sub_90443                 10.42       0.00       0.30       0.95       1.81       4.82       6.64        0.01     0.01   0.637
  sub_90444                 10.42       0.00       0.30       0.46       3.13       2.32       5.45        0.00     0.00   0.523
  sub_90445                 10.42       0.00       0.30       0.80       2.20       4.08       6.28        0.00     0.00   0.603
  sub_90446                 10.42       0.00       0.30       0.49       3.05       2.47       5.52        0.00     0.00   0.530
  sub_90447                 10.42       0.00       0.30       0.76       2.33       3.84       6.17        0.01     0.00   0.592
  sub_90448                 10.42       0.00       0.30       0.70       2.47       3.57       6.04        0.01     0.00   0.580
  sub_90449                 10.42       0.00       0.30       0.66       2.58       3.37       5.95        0.00     0.00   0.571
  sub_90450                 10.42       0.00       0.30       0.56       2.85       2.85       5.70        0.00     0.00   0.547
  sub_90451                 10.42       0.00       0.30       0.71       2.44       3.62       6.07        0.01     0.00   0.582
  sub_90452                 10.42       0.00       0.30       0.92       1.90       4.65       6.55        0.00     0.00   0.629
  sub_90453                 10.42       0.00       0.30       0.47       3.09       2.39       5.48        0.00     0.00   0.526
  sub_90454                 10.42       0.00       0.30       0.63       2.66       3.22       5.88        0.01     0.00   0.564
  sub_90455                 10.42       0.00       0.30       0.35       3.42       1.77       5.19        0.00     0.00   0.498
  sub_90456                 10.42       0.00       0.30       0.95       1.83       4.79       6.62        0.01     0.00   0.636
  sub_90457                 10.42       0.00       0.30       0.93       1.87       4.72       6.58        0.01     0.00   0.632
  sub_90459                 10.42       0.00       0.30       1.13       1.34       5.72       7.06        0.01     0.01   0.678
  sub_90460                 10.42       0.00       0.29       1.51       0.31       7.67       7.98        0.01     0.00   0.766
  sub_90461                 10.42       0.00       0.30       0.54       2.90       2.75       5.66        0.00     0.00   0.543
  sub_90462                 10.42       0.00       0.30       0.77       2.31       3.88       6.19        0.01     0.00   0.594
  sub_90463                 10.42       0.00       0.30       0.39       3.30       1.99       5.30        0.00     0.00   0.508
  sub_90464                 10.42       0.00       0.30       0.66       2.60       3.32       5.92        0.01     0.00   0.569
  sub_90465                 10.42       0.00       0.30       0.35       3.42       1.77       5.19        0.00     0.00   0.498
  sub_90466                 10.42       0.00       0.30       0.61       2.72       3.10       5.82        0.01     0.00   0.559
  sub_90467                 10.42       0.00       0.30       0.30       3.55       1.52       5.07        0.01     0.00   0.487
  sub_90468                 10.42       0.00       0.30       0.58       2.80       2.94       5.74        0.01     0.00   0.551
  sub_90469                 10.42       0.00       0.30       0.35       3.42       1.77       5.19        0.00     0.00   0.498
  sub_90470                 10.42       0.00       0.30       0.60       2.75       3.04       5.79        0.01     0.00   0.556
  sub_90471                 10.42       0.00       0.30       0.50       3.02       2.52       5.54        0.01     0.00   0.532
  sub_90477                 10.42       0.00       0.30       0.34       3.44       1.72       5.17        0.01     0.00   0.496
  sub_90478                 10.42       0.00       0.30       0.39       3.30       1.99       5.30        0.00     0.00   0.508
  sub_90479                 10.42       0.00       0.30       0.93       1.86       4.74       6.59        0.00     0.00   0.633
  sub_90480                 10.42       0.00       0.30       0.46       3.12       2.33       5.46        0.01     0.00   0.524
  sub_90481                 10.42       0.00       0.30       0.58       2.79       2.96       5.75        0.01     0.00   0.552
  sub_90482                 10.42       0.00       0.30       0.61       2.73       3.08       5.81        0.00     0.00   0.558
  sub_90483                 10.42       0.00       0.30       1.22       1.09       6.20       7.29        0.01     0.00   0.699
  sub_90484                 10.42       0.00       0.30       0.51       2.99       2.58       5.57        0.01     0.00   0.535
  sub_90485                 10.42       0.00       0.30       0.92       1.90       4.66       6.56        0.01     0.00   0.629
  sub_90486                 10.42       0.00       0.30       0.68       2.53       3.45       5.99        0.01     0.00   0.575
  sub_90487                 10.42       0.00       0.30       0.58       2.79       2.96       5.75        0.01     0.00   0.552
  sub_90488                 10.42       0.00       0.30       0.71       2.45       3.61       6.06        0.01     0.00   0.582
  sub_90489                 10.42       0.00       0.30       0.36       3.39       1.83       5.22        0.00     0.00   0.501
  sub_90490                 10.42       0.00       0.30       0.32       3.49       1.63       5.12        0.00     0.00   0.492
  sub_90491                 10.42       0.00       0.30       0.38       3.34       1.93       5.26        0.01     0.00   0.505
  sub_90492                 10.42       0.00       0.30       0.51       2.99       2.59       5.58        0.01     0.00   0.535
  sub_90493                 10.42       0.00       0.30       0.35       3.42       1.76       5.19        0.00     0.00   0.498
  sub_90494                 10.42       0.00       0.30       0.33       3.46       1.69       5.15        0.00     0.00   0.494
  sub_90495                 10.42       0.00       0.30       0.52       2.96       2.64       5.60        0.01     0.00   0.538
  sub_90496                 10.42       0.00       0.30       0.35       3.42       1.76       5.19        0.00     0.00   0.498
  sub_90497                 10.42       0.00       0.30       0.31       3.52       1.58       5.10        0.00     0.00   0.490
  sub_90498                 10.42       0.00       0.30       0.59       2.78       2.98       5.76        0.01     0.00   0.553
  sub_90499                 10.42       0.00       0.30       1.02       1.62       5.19       6.81        0.01     0.00   0.654
  sub_90500                 10.42       0.00       0.30       0.75       2.35       3.80       6.15        0.01     0.00   0.591
  sub_90501                 10.42       0.00       0.30       0.33       3.47       1.67       5.14        0.01     0.00   0.494
  sub_90502                 10.42       0.00       0.30       0.65       2.63       3.27       5.90        0.01     0.00   0.566
  sub_90503                 10.42       0.00       0.30       0.36       3.38       1.84       5.22        0.00     0.00   0.501
  sub_90504                 10.42       0.00       0.30       0.34       3.45       1.71       5.16        0.00     0.00   0.495
  sub_90505                 10.42       0.00       0.30       0.39       3.30       2.00       5.30        0.01     0.00   0.509
  sub_90506                 10.42       0.00       0.30       0.43       3.20       2.18       5.39        0.00     0.00   0.517
  sub_90507                 10.42       0.00       0.30       0.45       3.15       2.29       5.43        0.01     0.00   0.522
  sub_90508                 10.42       0.00       0.30       0.44       3.18       2.22       5.40        0.00     0.00   0.518
  sub_90509                 10.42       0.00       0.30       0.90       1.94       4.58       6.52        0.00     0.00   0.626
  sub_90510                 10.42       0.00       0.30       0.41       3.26       2.07       5.33        0.00     0.00   0.512
  sub_90511                 10.42       0.00       0.30       0.70       2.49       3.54       6.03        0.00     0.00   0.579
  sub_90512                 10.42       0.00       0.30       0.46       3.11       2.35       5.46        0.01     0.00   0.524
  sub_90513                 10.42       0.00       0.30       0.32       3.50       1.61       5.11        0.01     0.00   0.491
  sub_90514                 10.42       0.00       0.30       0.42       3.23       2.14       5.36        0.01     0.00   0.515
  sub_90515                 10.42       0.00       0.30       0.74       2.38       3.75       6.13        0.01     0.00   0.588
  sub_90516                 10.42       0.00       0.30       1.03       1.59       5.24       6.83        0.00     0.00   0.656
  sub_90517                 10.42       0.00       0.30       0.75       2.36       3.79       6.14        0.00     0.00   0.590
  sub_90518                 10.42       0.00       0.30       0.22       3.75       1.13       4.89        0.00     0.00   0.469
  sub_90519                 10.42       0.00       0.30       0.83       2.13       4.21       6.34        0.01     0.00   0.609
  sub_90520                 10.42       0.00       0.30       0.81       2.19       4.10       6.29        0.01     0.00   0.604
  sub_90521                 10.42       0.00       0.30       0.48       3.08       2.42       5.49        0.00     0.00   0.527
  sub_90522                 10.42       0.00       0.30       0.38       3.33       1.93       5.27        0.00     0.00   0.506
  sub_90523                 10.42       0.00       0.30       0.47       3.09       2.40       5.49        0.01     0.00   0.527
  sub_90524                 10.42       0.00       0.30       0.80       2.23       4.03       6.26        0.01     0.00   0.601
  sub_90525                 10.42       0.00       0.30       1.00       1.68       5.08       6.76        0.02     0.01   0.649
  sub_90526                 10.42       0.00       0.30       0.80       2.20       4.08       6.28        0.00     0.00   0.603
  sub_90527                 10.42       0.00       0.30       1.04       1.58       5.27       6.85        0.01     0.00   0.657
  sub_90549                 10.42       0.00       0.30       0.75       2.34       3.82       6.16        0.00     0.00   0.592
  sub_90550                 10.42       0.00       0.30       0.00       4.35       0.00       4.35        0.00     0.00   0.418
  sub_90551                 10.42       0.00       0.30       0.88       2.00       4.47       6.47        0.00     0.00   0.621
  sub_90552                 10.42       0.00       0.30       0.36       3.39       1.83       5.22        0.02     0.01   0.501
  sub_90553                 10.42       0.00       0.30       0.85       2.09       4.29       6.38        0.00     0.00   0.612
  sub_90554                 10.42       0.00       0.30       0.80       2.20       4.08       6.28        0.00     0.00   0.603
  sub_90555                 10.42       0.00       0.30       0.98       1.73       4.98       6.71        0.01     0.00   0.644
  sub_90556                 10.42       0.00       0.30       1.08       1.48       5.45       6.93        0.01     0.00   0.666
  sub_90557                 10.42       0.00       0.30       0.55       2.87       2.81       5.68        0.01     0.00   0.545
  sub_90558                 10.42       0.00       0.30       0.56       2.86       2.84       5.69        0.01     0.00   0.547
  sub_90559                 10.42       0.00       0.30       0.88       2.01       4.45       6.46        0.01     0.00   0.620
  sub_90560                 10.42       0.00       0.30       0.72       2.42       3.67       6.09        0.01     0.00   0.585
  sub_90561                 10.42       0.00       0.30       0.64       2.63       3.27       5.90        0.01     0.00   0.566
  sub_90562                 10.42       0.00       0.30       0.60       2.76       3.02       5.78        0.01     0.00   0.555
  sub_90563                 10.42       0.00       0.30       0.56       2.85       2.85       5.70        0.01     0.00   0.547
  sub_90564                 10.42       0.00       0.30       0.49       3.05       2.47       5.52        0.00     0.00   0.530
  sub_90565                 10.42       0.00       0.30       0.69       2.50       3.52       6.02        0.01     0.00   0.578
  sub_90566                 10.42       0.00       0.30       0.71       2.45       3.61       6.06        0.01     0.00   0.582
  sub_90567                 10.42       0.00       0.30       0.85       2.09       4.30       6.39        0.00     0.00   0.613
  sub_90568                 10.42       0.00       0.30       0.00       4.35       0.00       4.35        0.00     0.00   0.418
  sub_90569                 10.42       0.00       0.30       0.78       2.27       3.96       6.22        0.00     0.00   0.598
  sub_90570                 10.42       0.00       0.30       0.93       1.86       4.72       6.59        0.00     0.00   0.632
  sub_90571                 10.42       0.00       0.30       0.50       3.02       2.54       5.55        0.00     0.00   0.533
  sub_90572                 10.42       0.00       0.30       0.50       3.02       2.52       5.54        0.01     0.00   0.532
  sub_90573                 10.42       0.00       0.30       0.33       3.46       1.69       5.15        0.00     0.00   0.494
  sub_90574                 10.42       0.00       0.30       0.38       3.34       1.91       5.26        0.00     0.00   0.505
  sub_90575                 10.42       0.00       0.30       0.62       2.70       3.13       5.84        0.01     0.00   0.560
  sub_90576                 10.42       0.00       0.30       0.67       2.56       3.41       5.96        0.01     0.00   0.573
  sub_90577                 10.42       0.00       0.30       0.65       2.61       3.31       5.92        0.01     0.00   0.568
  sub_90578                 10.42       0.00       0.30       0.57       2.83       2.88       5.72        0.01     0.00   0.549
  sub_90579                 10.42       0.00       0.30       0.48       3.08       2.41       5.49        0.01     0.00   0.527
  sub_90580                 10.42       0.00       0.30       0.99       1.71       5.01       6.72        0.01     0.00   0.646
  sub_90581                 10.42       0.00       0.30       0.80       2.22       4.04       6.26        0.01     0.00   0.601
  sub_90582                 10.42       0.00       0.30       0.63       2.68       3.17       5.85        0.01     0.00   0.562
  sub_90583                 10.42       0.00       0.30       0.78       2.26       3.96       6.23        0.01     0.00   0.598
  sub_90584                 10.42       0.00       0.30       0.44       3.18       2.22       5.40        0.01     0.00   0.519
  sub_90585                 10.42       0.00       0.30       0.44       3.19       2.21       5.40        0.01     0.00   0.518
  sub_90586                 10.42       0.00       0.30       0.48       3.07       2.44       5.50        0.01     0.00   0.528
  sub_90587                 10.42       0.00       0.30       0.53       2.94       2.69       5.62        0.00     0.00   0.540
  sub_90588                 10.42       0.00       0.30       0.36       3.38       1.85       5.23        0.00     0.00   0.502
  sub_90589                 10.42       0.00       0.30       0.60       2.76       3.02       5.78        0.01     0.00   0.555
  sub_90590                 10.42       0.00       0.30       0.57       2.82       2.91       5.73        0.01     0.00   0.550
  sub_90591                 10.42       0.00       0.30       0.39       3.31       1.98       5.29        0.01     0.00   0.508
  sub_90592                 10.42       0.00       0.30       0.38       3.34       1.92       5.26        0.01     0.00   0.505
  sub_90593                 10.42       0.00       0.30       0.51       2.98       2.60       5.58        0.00     0.00   0.536
  sub_90594                 10.42       0.00       0.30       0.63       2.66       3.21       5.87        0.01     0.00   0.563
  sub_90595                 10.42       0.00       0.30       0.64       2.65       3.24       5.88        0.01     0.00   0.565
  sub_90596                 10.42       0.00       0.30       0.36       3.38       1.84       5.22        0.00     0.00   0.501
  sub_90597                 10.42       0.00       0.30       0.85       2.08       4.31       6.39        0.00     0.00   0.613
  sub_90598                 10.42       0.00       0.30       0.84       2.10       4.27       6.38        0.00     0.00   0.612
  sub_90599                 10.42       0.00       0.30       0.62       2.70       3.14       5.84        0.00     0.00   0.560
  sub_90600                 10.42       0.00       0.30       0.56       2.85       2.85       5.70        0.00     0.00   0.547
  sub_90601                 10.42       0.00       0.30       0.94       1.84       4.76       6.61        0.01     0.00   0.634
  sub_90602                 10.42       0.00       0.30       0.70       2.49       3.54       6.03        0.01     0.00   0.579
  sub_90603                 10.42       0.00       0.30       0.89       1.98       4.50       6.48        0.01     0.00   0.622
  sub_90604                 10.42       0.00       0.30       0.59       2.77       3.01       5.77        0.01     0.00   0.554
  sub_90605                 10.42       0.00       0.30       0.58       2.79       2.96       5.75        0.01     0.00   0.552
  sub_90606                 10.42       0.00       0.30       0.66       2.60       3.32       5.93        0.01     0.00   0.569
  sub_90607                 10.42       0.00       0.30       0.68       2.53       3.45       5.99        0.00     0.00   0.575
  sub_90608                 10.42       0.00       0.30       0.81       2.18       4.13       6.31        0.01     0.00   0.606
  sub_90609                 10.42       0.00       0.30       0.96       1.80       4.85       6.65        0.00     0.00   0.638
  sub_90610                 10.42       0.00       0.30       0.93       1.87       4.71       6.58        0.00     0.00   0.632
  sub_90611                 10.42       0.00       0.30       0.83       2.14       4.21       6.34        0.00     0.00   0.609
  sub_90612                 10.42       0.00       0.30       0.94       1.85       4.75       6.60        0.01     0.00   0.634
  sub_90613                 10.42       0.00       0.30       1.00       1.68       5.07       6.75        0.01     0.00   0.648
  sub_90615                 10.42       0.00       0.30       0.85       2.08       4.31       6.39        0.01     0.00   0.614
  sub_90616                 10.42       0.00       0.30       0.44       3.19       2.21       5.40        0.01     0.00   0.518
  sub_90617                 10.42       0.00       0.30       0.56       2.85       2.86       5.70        0.01     0.00   0.548
  sub_90618                 10.42       0.00       0.30       0.36       3.38       1.84       5.22        0.01     0.00   0.501
  sub_90619                 10.42       0.00       0.30       0.06       4.20       0.30       4.49        0.00     0.00   0.431
  sub_90620                 10.42       0.00       0.30       0.38       3.33       1.94       5.27        0.00     0.00   0.506
  sub_90621                 10.42       0.00       0.30       0.81       2.20       4.09       6.29        0.01     0.00   0.604
  sub_90623                 10.42       0.00       0.30       0.69       2.51       3.50       6.01        0.01     0.00   0.577
  sub_90624                 10.42       0.00       0.30       0.67       2.57       3.38       5.95        0.00     0.00   0.571
  sub_90625                 10.42       0.00       0.30       0.57       2.83       2.88       5.72        0.00     0.00   0.549
  sub_90626                 10.42       0.00       0.30       0.51       3.00       2.57       5.57        0.00     0.00   0.534
  sub_90627                 10.42       0.00       0.30       0.90       1.95       4.56       6.51        0.01     0.00   0.625
  sub_90628                 10.42       0.00       0.30       0.74       2.39       3.73       6.12        0.01     0.00   0.587
  sub_90629                 10.42       0.00       0.30       0.85       2.07       4.33       6.40        0.01     0.00   0.615
  sub_90630                 10.42       0.00       0.30       0.36       3.39       1.83       5.22        0.00     0.00   0.501
  sub_90631                 10.42       0.00       0.30       0.56       2.85       2.86       5.70        0.00     0.00   0.548
  sub_90632                 10.42       0.00       0.30       0.58       2.79       2.96       5.75        0.00     0.00   0.552
  sub_90633                 10.42       0.00       0.30       0.36       3.39       1.82       5.21        0.00     0.00   0.500
  sub_90634                 10.42       0.00       0.30       0.54       2.90       2.75       5.66        0.00     0.00   0.543
  sub_90635                 10.42       0.00       0.30       0.80       2.23       4.03       6.26        0.01     0.00   0.601
  sub_90636                 10.42       0.00       0.30       0.60       2.74       3.05       5.80        0.01     0.00   0.557
  sub_90637                 10.42       0.00       0.30       0.56       2.86       2.83       5.69        0.01     0.00   0.546
  sub_90638                 10.42       0.00       0.30       0.33       3.48       1.65       5.13        0.01     0.00   0.493
  sub_90639                 10.42       0.00       0.30       0.85       2.08       4.32       6.40        0.01     0.00   0.614
  sub_90640                 10.42       0.00       0.30       0.43       3.21       2.17       5.38        0.01     0.00   0.516
  sub_90641                 10.42       0.00       0.30       0.53       2.95       2.67       5.61        0.01     0.00   0.539
  sub_90642                 10.42       0.00       0.30       0.66       2.58       3.37       5.95        0.00     0.00   0.571
  sub_90643                 10.42       0.00       0.30       0.43       3.21       2.16       5.37        0.01     0.00   0.516
  sub_90644                 10.42       0.00       0.30       0.37       3.37       1.87       5.23        0.00     0.00   0.503
  sub_90645                 10.42       0.00       0.30       0.52       2.96       2.64       5.60        0.00     0.00   0.538
  sub_90646                 10.42       0.00       0.30       0.98       1.74       4.96       6.70        0.01     0.00   0.643
  sub_90647                 10.42       0.00       0.30       1.35       0.76       6.82       7.58        0.01     0.00   0.728
  sub_90648                 10.42       0.00       0.30       0.35       3.40       1.80       5.20        0.00     0.00   0.499
  sub_90649                 10.42       0.00       0.30       0.52       2.96       2.65       5.60        0.01     0.00   0.538
  sub_90650                 10.42       0.00       0.30       0.51       2.98       2.61       5.58        0.01     0.00   0.536
  sub_90651                 10.42       0.00       0.30       0.42       3.22       2.15       5.37        0.01     0.00   0.515
  sub_90652                 10.42       0.00       0.30       0.54       2.92       2.72       5.64        0.00     0.00   0.541
  sub_90653                 10.42       0.00       0.30       0.65       2.61       3.31       5.92        0.00     0.00   0.568
  sub_90654                 10.42       0.00       0.30       0.75       2.36       3.79       6.14        0.00     0.00   0.590
  sub_90655                 10.42       0.00       0.30       0.48       3.06       2.45       5.51        0.01     0.00   0.529
  sub_90656                 10.42       0.00       0.30       0.86       2.05       4.36       6.42        0.01     0.00   0.616
  sub_90657                 10.42       0.00       0.30       0.90       1.94       4.58       6.52        0.01     0.00   0.626
  sub_90658                 10.42       0.00       0.30       0.52       2.97       2.62       5.59        0.01     0.00   0.537
  sub_90659                 10.42       0.00       0.30       1.18       1.20       5.98       7.18        0.00     0.00   0.690
  sub_90662                 10.42       0.00       0.30       0.60       2.74       3.06       5.80        0.00     0.00   0.557
  sub_90663                 10.42       0.00       0.30       0.82       2.15       4.18       6.33        0.02     0.01   0.608
  sub_90664                 10.42       0.00       0.29       1.63       0.00       8.26       8.26        0.00     0.00   0.793
  sub_90665                 10.42       0.00       0.30       0.76       2.32       3.86       6.18        0.01     0.00   0.593
  sub_90669                 10.42       0.00       0.30       0.62       2.70       3.13       5.83        0.00     0.00   0.560
  sub_90670                 10.42       0.00       0.30       0.45       3.15       2.29       5.43        0.00     0.00   0.522
  sub_90671                 10.42       0.00       0.30       0.50       3.03       2.52       5.54        0.00     0.00   0.532
  sub_90672                 10.42       0.00       0.30       0.66       2.59       3.34       5.93        0.01     0.00   0.570
  sub_90673                 10.42       0.00       0.30       0.84       2.11       4.26       6.37        0.01     0.00   0.611
  sub_90674                 10.42       0.00       0.30       0.24       3.70       1.23       4.93        0.01     0.00   0.474
  sub_90675                 10.42       0.00       0.30       0.37       3.36       1.88       5.24        0.01     0.00   0.503
  sub_90676                 10.42       0.00       0.30       0.55       2.89       2.78       5.67        0.01     0.00   0.544
  sub_90677                 10.42       0.00       0.30       0.80       2.21       4.06       6.27        0.00     0.00   0.602
  sub_90678                 10.42       0.00       0.30       0.72       2.44       3.64       6.07        0.00     0.00   0.583
  sub_90679                 10.42       0.00       0.30       0.79       2.25       4.00       6.24        0.01     0.00   0.599
  sub_90680                 10.42       0.00       0.30       0.45       3.14       2.30       5.44        0.01     0.00   0.522
  sub_90681                 10.42       0.00       0.30       0.80       2.21       4.06       6.28        0.00     0.00   0.602
  sub_90682                 10.42       0.00       0.30       0.72       2.43       3.65       6.08        0.01     0.00   0.584
  sub_90683                 10.42       0.00       0.30       1.19       1.17       6.03       7.21        0.00     0.00   0.692
  sub_90684                 10.42       0.00       0.30       0.27       3.64       1.35       4.99        0.00     0.00   0.479
  sub_90685                 10.42       0.00       0.30       0.19       3.83       0.98       4.82        0.00     0.00   0.462
  sub_90686                 10.42       0.00       0.30       0.72       2.44       3.64       6.07        0.00     0.00   0.583
  sub_90688                 10.42       0.00       0.30       0.54       2.90       2.75       5.66        0.00     0.00   0.543
  sub_90689                 10.42       0.00       0.30       0.87       2.03       4.41       6.44        0.00     0.00   0.618
  sub_90690                 10.42       0.00       0.30       0.68       2.53       3.46       5.99        0.00     0.00   0.575
  sub_90691                 10.42       0.00       0.30       0.59       2.79       2.97       5.76        0.00     0.00   0.553
  sub_90692                 10.42       0.00       0.30       0.51       3.00       2.57       5.57        0.00     0.00   0.535
  sub_90693                 10.42       0.00       0.30       0.96       1.79       4.86       6.65        0.00     0.00   0.639
  sub_90694                 10.42       0.00       0.30       1.31       0.84       6.66       7.51        0.00     0.00   0.721
  sub_90695                 10.42       0.00       0.30       0.73       2.39       3.72       6.11        0.00     0.00   0.587
  sub_90696                 10.42       0.00       0.30       0.81       2.18       4.13       6.31        0.00     0.00   0.606
  sub_90697                 10.42       0.00       0.30       0.84       2.11       4.25       6.36        0.00     0.00   0.611
  sub_90698                 10.42       0.00       0.30       0.95       1.82       4.80       6.62        0.00     0.00   0.636
  sub_90699                 10.42       0.00       0.30       1.12       1.35       5.70       7.05        0.00     0.00   0.677
  sub_90700                 10.42       0.00       0.30       0.31       3.52       1.57       5.10        0.00     0.00   0.489
  sub_90701                 10.42       0.00       0.30       0.29       3.58       1.46       5.04        0.00     0.00   0.484
  sub_90702                 10.42       0.00       0.30       0.33       3.48       1.65       5.13        0.00     0.00   0.493
  sub_90703                 10.42       0.00       0.30       0.84       2.12       4.24       6.36        0.00     0.00   0.611
  sub_90704                 10.42       0.00       0.30       0.81       2.20       4.08       6.28        0.01     0.00   0.603
  sub_90705                 10.42       0.00       0.30       0.87       2.03       4.42       6.44        0.01     0.00   0.618
  sub_90706                 10.42       0.00       0.30       0.60       2.76       3.02       5.78        0.00     0.00   0.555
  sub_90707                 10.42       0.00       0.30       0.40       3.29       2.02       5.31        0.00     0.00   0.509
  sub_90708                 10.42       0.00       0.30       0.97       1.77       4.91       6.68        0.01     0.00   0.641
  sub_90709                 10.42       0.00       0.30       0.72       2.44       3.64       6.07        0.01     0.00   0.583
  sub_90710                 10.42       0.00       0.30       0.94       1.85       4.75       6.60        0.01     0.00   0.633
  sub_90724                 10.42       0.00       0.30       0.98       1.74       4.96       6.70        0.00     0.00   0.643
  sub_90725                 10.42       0.00       0.29       1.63       0.00       8.26       8.26        0.00     0.00   0.793
  sub_90726                 10.42       0.00       0.29       1.63       0.00       8.26       8.26        0.00     0.00   0.793
  sub_90727                 10.42       0.00       0.29       1.63       0.00       8.26       8.26        0.00     0.00   0.793
  sub_90728                 10.42       0.00       0.29       1.63       0.00       8.26       8.26        0.00     0.00   0.793
  sub_90729                 10.42       0.00       0.29       1.63       0.00       8.26       8.26        0.00     0.00   0.793
  sub_90730                 10.42       0.00       0.29       1.63       0.00       8.26       8.26        0.00     0.00   0.793
  sub_90731                 10.42       0.00       0.29       1.63       0.00       8.26       8.26        0.00     0.00   0.793
  sub_90732                 10.42       0.00       0.29       1.63       0.00       8.26       8.26        0.00     0.00   0.793
  sub_90733                 10.42       0.00       0.30       0.48       3.07       2.43       5.50        0.00     0.00   0.528
  
  
  ******************
  Node Depth Summary
  ******************
  
  ---------------------------------------------------------------------------------
                                 Average  Maximum  Maximum  Time of Max    Reported
                                   Depth    Depth      HGL   Occurrence   Max Depth
  Node                 Type       Meters   Meters   Meters  days hr:min      Meters
  ---------------------------------------------------------------------------------
  j_9006F              JUNCTION     0.01     0.08    -0.28     0  01:25        0.08
  j_90334              JUNCTION     0.01     0.09    -0.12     0  01:11        0.08
  j_90335              JUNCTION     0.01     0.07    -0.34     0  01:45        0.07
  j_90336              JUNCTION     0.02     0.11    -0.06     0  01:20        0.11
  j_90363              JUNCTION     0.06     0.15    -0.20     0  01:19        0.15
  j_90364              JUNCTION     0.06     0.15    -0.20     0  01:20        0.15
  j_90365              JUNCTION     0.06     0.15    -0.20     0  01:19        0.15
  j_90366              JUNCTION     0.01     0.05    -0.26     0  01:45        0.05
  j_90367              JUNCTION     0.03     0.16    -0.33     0  01:20        0.16
  j_90368              JUNCTION     0.00     0.00    -0.29     0  00:00        0.00
  j_90369              JUNCTION     0.01     0.05    -0.25     0  01:45        0.05
  j_90370              JUNCTION     0.04     0.16    -0.35     0  01:45        0.16
  j_90371              JUNCTION     0.05     0.20    -0.36     0  01:46        0.20
  j_90372              JUNCTION     0.00     0.02    -0.23     0  01:20        0.02
  j_90373              JUNCTION     0.02     0.11    -0.36     0  01:46        0.11
  j_90374              JUNCTION     0.00     0.00    -0.28     0  00:00        0.00
  j_90375              JUNCTION     0.01     0.06    -0.28     0  01:45        0.06
  j_90376              JUNCTION     0.01     0.04    -0.11     0  01:20        0.04
  j_90377              JUNCTION     0.01     0.03    -0.14     0  01:45        0.03
  j_90378              JUNCTION     0.01     0.08    -0.32     0  01:45        0.08
  j_90379              JUNCTION     0.01     0.06    -0.19     0  01:20        0.06
  j_90380              JUNCTION     0.01     0.06    -0.27     0  01:20        0.06
  j_90381              JUNCTION     0.04     0.12    -0.33     0  01:20        0.12
  j_90382              JUNCTION     0.06     0.28    -0.64     0  01:21        0.28
  j_90383              JUNCTION     0.05     0.25    -0.57     0  01:21        0.24
  j_90384              JUNCTION     0.06     0.15    -0.31     0  01:17        0.15
  j_90385              JUNCTION     0.01     0.06    -0.31     0  01:19        0.06
  j_90386              JUNCTION     0.01     0.06    -0.17     0  01:12        0.06
  j_90387              JUNCTION     0.01     0.04    -0.16     0  01:45        0.04
  j_90388              JUNCTION     0.05     0.11    -0.28     0  01:45        0.10
  j_90389              JUNCTION     0.06     0.20    -0.41     0  01:20        0.20
  j_90390              JUNCTION     0.04     0.18    -0.39     0  01:20        0.18
  j_90391              JUNCTION     0.03     0.16    -0.08     0  01:20        0.16
  j_90392              JUNCTION     0.04     0.17    -0.08     0  01:20        0.17
  j_90393              JUNCTION     0.02     0.13    -0.06     0  01:20        0.13
  j_90394              JUNCTION     0.01     0.06    -0.04     0  01:45        0.06
  j_90395              JUNCTION     0.01     0.06    -0.02     0  01:45        0.06
  j_90396              JUNCTION     0.00     0.02     0.00     0  01:45        0.02
  j_90397              JUNCTION     0.05     0.26    -0.51     0  01:21        0.25
  j_90398              JUNCTION     0.02     0.11    -0.51     0  01:20        0.11
  j_90399              JUNCTION     0.01     0.05    -0.26     0  01:45        0.05
  j_90400              JUNCTION     0.00     0.03    -0.23     0  01:45        0.03
  j_90401              JUNCTION     0.01     0.05    -0.26     0  01:45        0.05
  j_90402              JUNCTION     0.01     0.05    -0.31     0  01:45        0.05
  j_90403              JUNCTION     0.00     0.02    -0.23     0  01:45        0.02
  j_90404              JUNCTION     0.01     0.05    -0.25     0  01:45        0.05
  j_90405              JUNCTION     0.02     0.10    -0.46     0  01:20        0.10
  j_90406              JUNCTION     0.01     0.09    -0.41     0  01:20        0.09
  j_90407              JUNCTION     0.01     0.04    -0.37     0  01:20        0.04
  j_90408              JUNCTION     0.01     0.06    -0.26     0  01:45        0.06
  j_90427              JUNCTION     0.03     0.16    -0.27     0  01:20        0.16
  j_90428              JUNCTION     0.02     0.11    -0.26     0  01:20        0.11
  j_90430              JUNCTION     0.01     0.07    -1.50     0  01:24        0.07
  j_90433              JUNCTION     0.02     0.08    -0.29     0  01:46        0.08
  j_90434              JUNCTION     0.07     0.14    -0.29     0  01:45        0.14
  j_90435              JUNCTION     0.02     0.07    -0.30     0  01:45        0.07
  j_90436              JUNCTION     0.02     0.11    -0.35     0  01:20        0.11
  j_90437              JUNCTION     0.07     0.33    -1.03     0  01:24        0.33
  j_90438              JUNCTION     0.10     0.41    -0.94     0  01:23        0.41
  j_90439              JUNCTION     0.01     0.06    -0.15     0  01:20        0.06
  j_90440              JUNCTION     0.01     0.04    -0.12     0  01:42        0.04
  j_90441              JUNCTION     0.00     0.03    -0.10     0  01:20        0.03
  j_90442              JUNCTION     0.07     0.30    -0.34     0  01:20        0.30
  j_90443              JUNCTION     0.10     0.42    -0.88     0  01:23        0.41
  j_90444              JUNCTION     0.05     0.25    -0.86     0  01:23        0.25
  j_90445              JUNCTION     0.02     0.09    -0.34     0  01:20        0.09
  j_90446              JUNCTION     0.01     0.07    -0.29     0  01:45        0.07
  j_90447              JUNCTION     0.01     0.06    -0.19     0  01:20        0.06
  j_90448              JUNCTION     0.01     0.05    -0.22     0  01:20        0.05
  j_90449              JUNCTION     0.03     0.09    -0.39     0  01:20        0.09
  j_90450              JUNCTION     0.02     0.06    -0.41     0  01:20        0.06
  j_90451              JUNCTION     0.05     0.25    -0.77     0  01:22        0.25
  j_90452              JUNCTION     0.01     0.07    -0.35     0  01:20        0.07
  j_90453              JUNCTION     0.06     0.28    -0.68     0  01:22        0.27
  j_90454              JUNCTION     0.01     0.08    -0.39     0  01:45        0.08
  j_90455              JUNCTION     0.03     0.10    -0.44     0  01:45        0.10
  j_90456              JUNCTION     0.03     0.14    -0.52     0  01:20        0.14
  j_90457              JUNCTION     0.05     0.20    -0.56     0  01:20        0.20
  j_90459              JUNCTION     0.04     0.19    -0.86     0  01:20        0.19
  j_90460              JUNCTION     0.02     0.14    -0.82     0  01:22        0.14
  j_90461              JUNCTION     0.08     0.26    -0.82     0  01:21        0.26
  j_90462              JUNCTION     0.05     0.22    -0.76     0  01:48        0.22
  j_90463              JUNCTION     0.02     0.12    -0.61     0  01:45        0.12
  j_90464              JUNCTION     0.02     0.10    -0.53     0  01:45        0.09
  j_90465              JUNCTION     0.01     0.08    -0.46     0  01:45        0.08
  j_90466              JUNCTION     0.01     0.07    -0.37     0  01:45        0.07
  j_90467              JUNCTION     0.02     0.10    -0.32     0  01:45        0.10
  j_90468              JUNCTION     0.03     0.14    -0.38     0  01:45        0.14
  j_90469              JUNCTION     0.02     0.11    -0.45     0  01:45        0.11
  j_90470              JUNCTION     0.03     0.15    -0.52     0  01:45        0.15
  j_90471              JUNCTION     0.03     0.13    -0.57     0  01:46        0.12
  j_90477              JUNCTION     0.01     0.06    -0.25     0  01:45        0.06
  j_90478              JUNCTION     0.02     0.11    -0.30     0  01:20        0.11
  j_90479              JUNCTION     0.00     0.03    -0.29     0  01:20        0.03
  j_90480              JUNCTION     0.01     0.04    -0.21     0  01:42        0.04
  j_90481              JUNCTION     0.02     0.13    -0.27     0  01:20        0.13
  j_90482              JUNCTION     0.03     0.15    -0.30     0  01:20        0.15
  j_90483              JUNCTION     0.01     0.09    -0.19     0  01:20        0.09
  j_90484              JUNCTION     0.01     0.04    -0.16     0  01:45        0.04
  j_90485              JUNCTION     0.02     0.09    -0.24     0  01:20        0.09
  j_90486              JUNCTION     0.05     0.18    -0.28     0  01:20        0.18
  j_90487              JUNCTION     0.03     0.21    -0.31     0  01:20        0.21
  j_90488              JUNCTION     0.07     0.28    -0.32     0  01:20        0.27
  j_90489              JUNCTION     0.01     0.05    -0.18     0  01:45        0.05
  j_90490              JUNCTION     0.01     0.06    -0.25     0  01:45        0.06
  j_90491              JUNCTION     0.04     0.20    -0.34     0  01:20        0.19
  j_90492              JUNCTION     0.05     0.23    -0.39     0  01:47        0.23
  j_90493              JUNCTION     0.01     0.05    -0.27     0  01:45        0.05
  j_90494              JUNCTION     0.06     0.30    -0.44     0  01:48        0.30
  j_90495              JUNCTION     0.06     0.30    -0.41     0  01:48        0.29
  j_90496              JUNCTION     0.02     0.07    -0.25     0  01:44        0.07
  j_90497              JUNCTION     0.01     0.03    -0.15     0  01:42        0.03
  j_90498              JUNCTION     0.03     0.16    -0.32     0  01:20        0.16
  j_90499              JUNCTION     0.03     0.17    -0.30     0  01:20        0.17
  j_90500              JUNCTION     0.02     0.10    -0.28     0  01:45        0.10
  j_90501              JUNCTION     0.01     0.08    -0.19     0  01:45        0.08
  j_90502              JUNCTION     0.01     0.05    -0.18     0  01:45        0.05
  j_90503              JUNCTION     0.01     0.05    -0.18     0  01:45        0.05
  j_90504              JUNCTION     0.04     0.10    -0.18     0  01:45        0.10
  j_90505              JUNCTION     0.02     0.12    -0.38     0  01:45        0.12
  j_90506              JUNCTION     0.04     0.17    -0.34     0  01:45        0.17
  j_90507              JUNCTION     0.01     0.07    -0.30     0  01:45        0.06
  j_90508              JUNCTION     0.02     0.12    -0.33     0  01:45        0.11
  j_90509              JUNCTION     0.01     0.03    -0.22     0  01:20        0.03
  j_90510              JUNCTION     0.01     0.04    -0.27     0  01:45        0.04
  j_90511              JUNCTION     0.08     0.28    -0.31     0  01:20        0.28
  j_90512              JUNCTION     0.05     0.25    -0.29     0  01:20        0.24
  j_90513              JUNCTION     0.01     0.05    -0.21     0  01:45        0.05
  j_90514              JUNCTION     0.01     0.07    -0.25     0  01:45        0.07
  j_90515              JUNCTION     0.04     0.10    -0.31     0  01:45        0.10
  j_90516              JUNCTION     0.07     0.13    -0.31     0  01:20        0.13
  j_90517              JUNCTION     0.04     0.22    -0.70     0  01:46        0.21
  j_90518              JUNCTION     0.06     0.22    -0.66     0  01:46        0.21
  j_90519              JUNCTION     0.04     0.20    -0.63     0  01:45        0.19
  j_90520              JUNCTION     0.02     0.13    -0.22     0  01:45        0.12
  j_90521              JUNCTION     0.01     0.07    -0.17     0  01:45        0.07
  j_90522              JUNCTION     0.04     0.10    -0.17     0  01:45        0.10
  j_90523              JUNCTION     0.01     0.07    -0.13     0  01:42        0.07
  j_90524              JUNCTION     0.03     0.18    -0.27     0  01:20        0.18
  j_90525              JUNCTION     0.02     0.14    -0.21     0  01:20        0.14
  j_90526              JUNCTION     0.01     0.09    -0.17     0  01:20        0.09
  j_90527              JUNCTION     0.01     0.07    -0.11     0  01:20        0.07
  j_90549              JUNCTION     0.01     0.09    -0.32     0  01:45        0.09
  j_90550              JUNCTION     0.13     0.44    -0.79     0  01:57        0.44
  j_90551              JUNCTION     0.01     0.03     0.08     0  01:20        0.03
  j_90553              JUNCTION     0.05     0.16    -0.22     0  01:20        0.16
  j_90554              JUNCTION     0.02     0.12    -0.22     0  01:20        0.12
  j_90555              JUNCTION     0.01     0.08    -0.16     0  01:15        0.08
  j_90556              JUNCTION     0.04     0.15    -0.22     0  01:20        0.15
  j_90557              JUNCTION     0.05     0.15    -0.23     0  01:20        0.15
  j_90558              JUNCTION     0.07     0.26    -0.45     0  01:46        0.26
  j_90559              JUNCTION     0.02     0.14    -0.44     0  01:45        0.14
  j_90560              JUNCTION     0.03     0.14    -0.42     0  01:45        0.14
  j_90561              JUNCTION     0.01     0.07    -0.31     0  01:20        0.07
  j_90562              JUNCTION     0.04     0.13    -0.32     0  01:20        0.13
  j_90563              JUNCTION     0.05     0.24    -0.46     0  01:50        0.24
  j_90564              JUNCTION     0.08     0.35    -0.46     0  01:50        0.35
  j_90565              JUNCTION     0.01     0.06    -0.28     0  01:20        0.06
  j_90566              JUNCTION     0.01     0.04    -0.16     0  01:20        0.04
  j_90567              JUNCTION     0.01     0.04     0.07     0  01:20        0.04
  j_90568              JUNCTION     0.10     0.42    -0.69     0  01:56        0.42
  j_90569              JUNCTION     0.05     0.12    -0.20     0  01:13        0.12
  j_90570              JUNCTION     0.01     0.03    -0.05     0  01:20        0.03
  j_90571              JUNCTION     0.02     0.09    -0.34     0  01:20        0.09
  j_90572              JUNCTION     0.09     0.40    -0.46     0  01:50        0.40
  j_90573              JUNCTION     0.01     0.06    -0.28     0  01:45        0.06
  j_90574              JUNCTION     0.08     0.34    -0.46     0  01:49        0.34
  j_90575              JUNCTION     0.13     0.44    -0.47     0  01:49        0.44
  j_90576              JUNCTION     0.09     0.39    -0.53     0  01:53        0.39
  j_90577              JUNCTION     0.10     0.42    -0.56     0  01:54        0.42
  j_90578              JUNCTION     0.08     0.39    -0.56     0  01:54        0.39
  j_90579              JUNCTION     0.06     0.32    -0.56     0  01:53        0.32
  j_90580              JUNCTION     0.01     0.06    -0.07     0  01:20        0.06
  j_90581              JUNCTION     0.01     0.07    -0.17     0  01:20        0.07
  j_90582              JUNCTION     0.01     0.07    -0.17     0  01:20        0.07
  j_90583              JUNCTION     0.01     0.07    -0.24     0  01:20        0.07
  j_90584              JUNCTION     0.02     0.09    -0.26     0  01:20        0.09
  j_90585              JUNCTION     0.08     0.37    -0.46     0  01:48        0.37
  j_90586              JUNCTION     0.09     0.38    -0.44     0  01:24        0.38
  j_90587              JUNCTION     0.08     0.36    -0.43     0  01:23        0.36
  j_90588              JUNCTION     0.01     0.06    -0.30     0  01:45        0.06
  j_90589              JUNCTION     0.01     0.06    -0.22     0  01:45        0.06
  j_90590              JUNCTION     0.01     0.04    -0.21     0  01:45        0.04
  j_90591              JUNCTION     0.05     0.27    -0.34     0  01:21        0.26
  j_90592              JUNCTION     0.07     0.30    -0.37     0  01:22        0.29
  j_90593              JUNCTION     0.08     0.37    -0.42     0  01:23        0.37
  j_90594              JUNCTION     0.05     0.29    -0.41     0  01:23        0.29
  j_90595              JUNCTION     0.02     0.09    -0.25     0  01:20        0.09
  j_90596              JUNCTION     0.01     0.06    -0.26     0  01:20        0.06
  j_90597              JUNCTION     0.02     0.09    -0.19     0  01:20        0.09
  j_90598              JUNCTION     0.01     0.06    -0.19     0  01:20        0.06
  j_90599              JUNCTION     0.03     0.11    -0.18     0  01:20        0.11
  j_90600              JUNCTION     0.01     0.07    -0.15     0  01:20        0.07
  j_90601              JUNCTION     0.01     0.06    -0.11     0  01:12        0.06
  j_90602              JUNCTION     0.01     0.08    -0.19     0  01:20        0.08
  j_90603              JUNCTION     0.01     0.07    -0.22     0  01:20        0.07
  j_90604              JUNCTION     0.02     0.08    -0.28     0  01:20        0.08
  j_90605              JUNCTION     0.04     0.18    -0.28     0  01:20        0.18
  j_90606              JUNCTION     0.05     0.19    -0.24     0  01:20        0.19
  j_90607              JUNCTION     0.02     0.15    -0.23     0  01:20        0.14
  j_90608              JUNCTION     0.02     0.12    -0.22     0  01:20        0.12
  j_90609              JUNCTION     0.01     0.04    -0.13     0  01:20        0.04
  j_90610              JUNCTION     0.01     0.08    -0.14     0  01:20        0.08
  j_90611              JUNCTION     0.01     0.09    -0.18     0  01:20        0.09
  j_90612              JUNCTION     0.01     0.08    -0.13     0  01:20        0.08
  j_90613              JUNCTION     0.01     0.05    -0.05     0  01:20        0.05
  j_90615              JUNCTION     0.01     0.07    -0.22     0  01:20        0.07
  j_90616              JUNCTION     0.01     0.08    -0.24     0  01:45        0.08
  j_90617              JUNCTION     0.01     0.04    -0.19     0  01:45        0.04
  j_90618              JUNCTION     0.02     0.09    -0.28     0  01:45        0.09
  j_90619              JUNCTION     0.10     0.42    -0.58     0  01:55        0.42
  j_90620              JUNCTION     0.15     0.48    -0.57     0  01:55        0.48
  j_90621              JUNCTION     0.10     0.41    -0.57     0  01:55        0.41
  j_90623              JUNCTION     0.08     0.34    -0.56     0  01:56        0.34
  j_90624              JUNCTION     0.04     0.23    -0.56     0  01:56        0.23
  j_90625              JUNCTION     0.02     0.17    -0.53     0  01:57        0.16
  j_90626              JUNCTION     0.05     0.28    -0.54     0  01:56        0.28
  j_90627              JUNCTION     0.08     0.34    -0.54     0  01:56        0.34
  j_90628              JUNCTION     0.02     0.11    -0.30     0  01:20        0.11
  j_90629              JUNCTION     0.01     0.08    -0.27     0  01:20        0.08
  j_90630              JUNCTION     0.01     0.07    -0.12     0  01:45        0.07
  j_90631              JUNCTION     0.02     0.10    -0.32     0  01:45        0.10
  j_90632              JUNCTION     0.02     0.11    -0.34     0  01:45        0.11
  j_90633              JUNCTION     0.01     0.09    -0.39     0  01:45        0.09
  j_90634              JUNCTION     0.13     0.36    -0.52     0  01:56        0.36
  j_90635              JUNCTION     0.03     0.18    -0.52     0  01:57        0.18
  j_90636              JUNCTION     0.04     0.12    -0.45     0  01:45        0.11
  j_90637              JUNCTION     0.05     0.21    -0.50     0  01:48        0.21
  j_90638              JUNCTION     0.03     0.14    -0.34     0  01:20        0.14
  j_90639              JUNCTION     0.02     0.11    -0.29     0  01:20        0.11
  j_90640              JUNCTION     0.01     0.06    -0.23     0  01:45        0.06
  j_90641              JUNCTION     0.05     0.28    -0.56     0  01:52        0.28
  j_90642              JUNCTION     0.02     0.17    -0.56     0  01:52        0.17
  j_90643              JUNCTION     0.02     0.16    -0.56     0  01:53        0.16
  j_90644              JUNCTION     0.01     0.06    -0.09     0  01:45        0.06
  j_90645              JUNCTION     0.00     0.02     0.09     0  01:45        0.02
  j_90646              JUNCTION     0.03     0.11     0.01     0  01:20        0.11
  j_90647              JUNCTION     0.01     0.05     0.08     0  01:20        0.05
  j_90648              JUNCTION     0.01     0.07    -0.22     0  01:20        0.07
  j_90649              JUNCTION     0.01     0.09    -0.12     0  01:20        0.09
  j_90650              JUNCTION     0.03     0.13    -0.25     0  01:20        0.13
  j_90651              JUNCTION     0.01     0.08    -0.36     0  01:45        0.07
  j_90652              JUNCTION     0.02     0.09    -0.33     0  01:45        0.09
  j_90653              JUNCTION     0.01     0.03    -0.21     0  01:45        0.03
  j_90654              JUNCTION     0.05     0.21    -0.39     0  01:49        0.21
  j_90655              JUNCTION     0.07     0.25    -0.41     0  01:49        0.25
  j_90656              JUNCTION     0.07     0.25    -0.44     0  01:48        0.24
  j_90657              JUNCTION     0.01     0.04     0.27     0  01:20        0.04
  j_90658              JUNCTION     0.01     0.05     0.18     0  01:20        0.05
  j_90659              JUNCTION     0.01     0.06     0.08     0  01:20        0.06
  j_90662              JUNCTION     0.01     0.05    -0.27     0  01:20        0.05
  j_90663              JUNCTION     0.02     0.10    -0.33     0  01:20        0.10
  j_90664              JUNCTION     0.01     0.05    -0.22     0  01:20        0.05
  j_90665              JUNCTION     0.09     0.40    -0.57     0  01:55        0.40
  j_90669              JUNCTION     0.06     0.20    -0.03     0  01:21        0.19
  j_90670              JUNCTION     0.08     0.22    -0.03     0  01:21        0.22
  j_90671              JUNCTION     0.09     0.23    -0.03     0  01:20        0.22
  j_90672              JUNCTION     0.02     0.12    -0.34     0  01:47        0.12
  j_90673              JUNCTION     0.06     0.19    -0.34     0  01:25        0.19
  j_90674              JUNCTION     0.06     0.21    -0.39     0  01:49        0.21
  j_90675              JUNCTION     0.05     0.17    -0.05     0  01:21        0.17
  j_90676              JUNCTION     0.07     0.20    -0.04     0  01:21        0.20
  j_90677              JUNCTION     0.12     0.26    -0.03     0  01:20        0.25
  j_90678              JUNCTION     0.01     0.07    -0.03     0  01:22        0.06
  j_90679              JUNCTION     0.01     0.05     0.03     0  01:17        0.05
  j_90680              JUNCTION     0.04     0.17    -0.13     0  01:22        0.17
  j_90681              JUNCTION     0.06     0.19    -0.19     0  01:23        0.19
  j_90682              JUNCTION     0.00     0.03    -0.00     0  01:20        0.03
  j_90683              JUNCTION     0.04     0.17    -0.28     0  01:25        0.17
  j_90684              JUNCTION     0.01     0.08    -0.28     0  01:25        0.08
  j_90685              JUNCTION     0.01     0.03     0.14     0  01:45        0.03
  j_90686              JUNCTION     0.02     0.12    -0.28     0  01:25        0.12
  j_90688              JUNCTION     0.01     0.03     0.48     0  01:45        0.03
  j_90689              JUNCTION     0.01     0.08    -0.22     0  01:20        0.08
  j_90690              JUNCTION     0.01     0.07    -0.18     0  01:20        0.07
  j_90691              JUNCTION     0.01     0.04     0.14     0  01:45        0.04
  j_90692              JUNCTION     0.00     0.03     0.23     0  01:45        0.03
  j_90693              JUNCTION     0.00     0.02     0.05     0  01:20        0.02
  j_90694              JUNCTION     0.01     0.04     0.10     0  01:20        0.04
  j_90695              JUNCTION     0.01     0.03     0.53     0  01:20        0.03
  j_90696              JUNCTION     0.01     0.05     0.05     0  01:20        0.05
  j_90697              JUNCTION     0.01     0.06    -0.01     0  01:20        0.06
  j_90698              JUNCTION     0.01     0.06    -0.06     0  01:20        0.06
  j_90699              JUNCTION     0.01     0.07    -0.11     0  01:20        0.07
  j_90700              JUNCTION     0.00     0.02     0.52     0  01:45        0.02
  j_90701              JUNCTION     0.00     0.02     0.52     0  01:45        0.02
  j_90702              JUNCTION     0.00     0.02     0.52     0  01:45        0.02
  j_90703              JUNCTION     0.03     0.15    -0.33     0  01:20        0.15
  j_90704              JUNCTION     0.01     0.06    -0.16     0  01:45        0.06
  j_90705              JUNCTION     0.01     0.06    -0.20     0  01:15        0.06
  j_90706              JUNCTION     0.04     0.22    -0.32     0  01:21        0.22
  j_90707              JUNCTION     0.02     0.10    -0.28     0  01:20        0.10
  j_90708              JUNCTION     0.01     0.06    -0.05     0  01:20        0.06
  j_90709              JUNCTION     0.01     0.07    -0.13     0  01:20        0.07
  j_90710              JUNCTION     0.01     0.06     0.01     0  01:20        0.06
  j_90724              JUNCTION     0.09     0.23    -0.03     0  01:21        0.22
  j_90725              JUNCTION     0.01     0.04     0.04     0  01:20        0.04
  j_90726              JUNCTION     0.00     0.03     0.08     0  01:20        0.03
  j_90727              JUNCTION     0.00     0.02     0.12     0  01:20        0.02
  j_90728              JUNCTION     0.01     0.05     0.11     0  01:20        0.05
  j_90729              JUNCTION     0.00     0.03     0.26     0  01:20        0.03
  j_90730              JUNCTION     0.01     0.09     0.01     0  01:20        0.09
  j_90731              JUNCTION     0.01     0.05     0.15     0  01:20        0.05
  j_90732              JUNCTION     0.00     0.02     0.17     0  01:20        0.02
  j_90733              JUNCTION     0.02     0.11    -0.03     0  01:21        0.11
  j_91272              JUNCTION     0.00     0.00     0.17     0  00:00        0.00
  j_91273              JUNCTION     0.00     0.00     0.47     0  00:00        0.00
  j_91274              JUNCTION     0.00     0.00     0.23     0  00:00        0.00
  j_91275              JUNCTION     0.00     0.00     0.47     0  00:00        0.00
  j_91276              JUNCTION     0.00     0.00     0.28     0  00:00        0.00
  j_91277              JUNCTION     0.00     0.00     0.51     0  00:00        0.00
  j_91278              JUNCTION     0.00     0.00     0.35     0  00:00        0.00
  j_91279              JUNCTION     0.00     0.00     0.50     0  00:00        0.00
  j_91292              JUNCTION     0.00     0.00    -0.01     0  00:00        0.00
  j_91293              JUNCTION     0.00     0.00    -0.23     0  00:00        0.00
  j_91294              JUNCTION     0.00     0.00     0.31     0  00:00        0.00
  j_90552              OUTFALL      0.00     0.00    -1.29     0  00:00        0.00
  j_90431              OUTFALL      0.01     0.07    -1.54     0  01:24        0.07
  
  
  *******************
  Node Inflow Summary
  *******************
  
  -------------------------------------------------------------------------------------------------
                                  Maximum  Maximum                  Lateral       Total        Flow
                                  Lateral    Total  Time of Max      Inflow      Inflow     Balance
                                   Inflow   Inflow   Occurrence      Volume      Volume       Error
  Node                 Type           CMS      CMS  days hr:min    10^6 ltr    10^6 ltr     Percent
  -------------------------------------------------------------------------------------------------
  j_9006F              JUNCTION     0.001    0.001     0  01:19     0.00221     0.00225       0.000
  j_90334              JUNCTION     0.005    0.005     0  01:20     0.00904     0.00904       0.000
  j_90335              JUNCTION     0.004    0.004     0  01:45     0.00992     0.00992       0.000
  j_90336              JUNCTION     0.001    0.003     0  01:45     0.00217     0.00913       0.000
  j_90363              JUNCTION     0.004    0.004     0  01:45      0.0111      0.0112       0.000
  j_90364              JUNCTION     0.002    0.009     0  01:16       0.004       0.025       0.056
  j_90365              JUNCTION     0.000    0.002     0  01:08    0.000744     0.00102       5.483
  j_90366              JUNCTION     0.001    0.001     0  01:45     0.00403     0.00403       0.000
  j_90367              JUNCTION     0.002    0.011     0  01:20     0.00428       0.033       0.017
  j_90368              JUNCTION     0.000    0.000     0  00:00           0           0       0.000 ltr
  j_90369              JUNCTION     0.003    0.003     0  01:45     0.00963     0.00963       0.000
  j_90370              JUNCTION     0.001    0.008     0  01:45     0.00396      0.0236       0.019
  j_90371              JUNCTION     0.002    0.021     0  01:45     0.00481      0.0745      -0.108
  j_90372              JUNCTION     0.001    0.001     0  01:20     0.00259     0.00259       0.000
  j_90373              JUNCTION     0.001    0.004     0  01:45     0.00312      0.0131      -0.142
  j_90374              JUNCTION     0.000    0.000     0  00:00           0           0       0.000 ltr
  j_90375              JUNCTION     0.002    0.003     0  01:45     0.00436     0.00738      -0.128
  j_90376              JUNCTION     0.000    0.001     0  01:20    0.000805     0.00307       0.000
  j_90377              JUNCTION     0.001    0.002     0  01:45     0.00368     0.00674      -0.434
  j_90378              JUNCTION     0.001    0.004     0  01:45     0.00425      0.0114       0.000
  j_90379              JUNCTION     0.002    0.002     0  01:20     0.00707     0.00707      -0.358
  j_90380              JUNCTION     0.002    0.002     0  01:20     0.00785     0.00785       0.000
  j_90381              JUNCTION     0.002    0.004     0  01:20     0.00472      0.0126       0.730
  j_90382              JUNCTION     0.002    0.050     0  01:20     0.00542       0.185      -0.078
  j_90383              JUNCTION     0.002    0.046     0  01:20      0.0045       0.167      -0.024
  j_90384              JUNCTION     0.001    0.005     0  01:15     0.00293      0.0136       0.180
  j_90385              JUNCTION     0.001    0.003     0  01:44     0.00349      0.0107       0.105
  j_90386              JUNCTION     0.002    0.002     0  01:20     0.00716     0.00716      -0.205
  j_90387              JUNCTION     0.001    0.001     0  01:45     0.00436     0.00436       0.000
  j_90388              JUNCTION     0.001    0.002     0  01:45     0.00267     0.00705       2.070
  j_90389              JUNCTION     0.001    0.032     0  01:20     0.00363       0.115       0.000
  j_90390              JUNCTION     0.001    0.022     0  01:45      0.0021      0.0836      -0.003
  j_90391              JUNCTION     0.002    0.010     0  01:20     0.00331       0.028       0.012
  j_90392              JUNCTION     0.002    0.009     0  01:20     0.00589      0.0247       0.172
  j_90393              JUNCTION     0.004    0.007     0  01:20     0.00962      0.0188      -0.150
  j_90394              JUNCTION     0.001    0.002     0  01:45     0.00301     0.00696      -0.039
  j_90395              JUNCTION     0.001    0.002     0  01:45     0.00295     0.00395       0.023
  j_90396              JUNCTION     0.000    0.000     0  01:41       0.001       0.001      -0.044
  j_90397              JUNCTION     0.002    0.042     0  01:20     0.00407       0.149      -0.022
  j_90398              JUNCTION     0.002    0.010     0  01:20     0.00465      0.0298       0.017
  j_90399              JUNCTION     0.001    0.002     0  01:45     0.00425     0.00629       0.023
  j_90400              JUNCTION     0.001    0.001     0  01:45     0.00279     0.00348      -0.209
  j_90401              JUNCTION     0.001    0.002     0  01:45     0.00402     0.00546       0.171
  j_90402              JUNCTION     0.001    0.002     0  01:45     0.00405     0.00438       0.000
  j_90403              JUNCTION     0.001    0.001     0  01:45     0.00262     0.00262      -0.332
  j_90404              JUNCTION     0.001    0.002     0  01:45     0.00431     0.00592       0.043
  j_90405              JUNCTION     0.002    0.006     0  01:20     0.00472      0.0188       0.041
  j_90406              JUNCTION     0.002    0.005     0  01:20     0.00462      0.0141       0.028
  j_90407              JUNCTION     0.001    0.001     0  01:20     0.00357     0.00357      -0.400
  j_90408              JUNCTION     0.003    0.003     0  01:45     0.00853     0.00853      -0.160
  j_90427              JUNCTION     0.003    0.006     0  01:20     0.00922      0.0197       0.000
  j_90428              JUNCTION     0.002    0.004     0  01:20     0.00552      0.0105      -0.365
  j_90430              JUNCTION     0.001    0.157     0  01:24     0.00256       0.653       0.005
  j_90433              JUNCTION     0.001    0.001     0  01:14     0.00151     0.00155       0.000
  j_90434              JUNCTION     0.001    0.003     0  01:44     0.00283     0.00829       4.747
  j_90435              JUNCTION     0.002    0.004     0  01:45     0.00475      0.0126      -0.165
  j_90436              JUNCTION     0.001    0.011     0  01:20     0.00249      0.0346       0.000
  j_90437              JUNCTION     0.002    0.157     0  01:23     0.00593        0.65       0.005
  j_90438              JUNCTION     0.002    0.147     0  01:22       0.005       0.597       0.003
  j_90439              JUNCTION     0.001    0.004     0  01:20     0.00288      0.0118       0.000
  j_90440              JUNCTION     0.003    0.003     0  01:45     0.00904     0.00904       0.195
  j_90441              JUNCTION     0.002    0.002     0  01:20      0.0048      0.0048      -0.073
  j_90442              JUNCTION     0.005    0.039     0  01:20      0.0116       0.138       0.017
  j_90443              JUNCTION     0.006    0.146     0  01:22      0.0147       0.579      -0.025
  j_90444              JUNCTION     0.002    0.061     0  01:21     0.00485       0.243      -0.000
  j_90445              JUNCTION     0.002    0.005     0  01:20     0.00484      0.0161       0.011
  j_90446              JUNCTION     0.001    0.004     0  01:45     0.00425      0.0113       0.156
[...]
  c_905151                1.00   0.13  0.87  0.00  0.00  0.00  0.00  0.00  0.00  0.00
  c_905152                1.00   0.13  0.54  0.00  0.33  0.00  0.00  0.00  0.86  0.00
  c_905161                1.00   0.13  0.00  0.00  0.87  0.00  0.00  0.00  0.00  0.00
  c_905171                1.00   0.13  0.00  0.00  0.07  0.00  0.00  0.80  0.00  0.00
  c_905172                1.00   0.13  0.22  0.00  0.65  0.00  0.00  0.00  0.69  0.00
  c_905181                1.00   0.13  0.00  0.00  0.00  0.00  0.00  0.87  0.00  0.00
  c_905182                1.00   0.13  0.00  0.00  0.10  0.00  0.77  0.00  0.00  0.00
  c_905191                1.00   0.13  0.00  0.00  0.27  0.00  0.00  0.61  0.10  0.00
  c_905192                1.00   0.13  0.38  0.00  0.49  0.00  0.00  0.00  0.59  0.00
  c_905201                1.00   0.13  0.00  0.00  0.00  0.00  0.00  0.87  0.00  0.00
  c_905211                1.00   0.13  0.55  0.00  0.32  0.00  0.00  0.00  0.86  0.00
  c_905221                1.00   0.13  0.25  0.00  0.62  0.00  0.00  0.00  0.25  0.00
  c_905231                1.00   0.68  0.04  0.00  0.28  0.00  0.00  0.00  0.66  0.00
  c_905241                1.00   0.13  0.53  0.00  0.34  0.00  0.00  0.00  0.75  0.00
  c_905251                1.00   0.66  0.03  0.00  0.31  0.00  0.00  0.00  0.86  0.00
  c_905261                1.00   0.69  0.01  0.00  0.30  0.00  0.00  0.00  0.86  0.00
  c_905271                1.00   0.70  0.01  0.00  0.29  0.00  0.00  0.00  0.86  0.00
  c_905501                1.00   0.13  0.00  0.00  0.00  0.00  0.00  0.87  0.00  0.00
  c_905511                1.00   0.13  0.00  0.00  0.00  0.00  0.00  0.87  0.00  0.00
  c_905521                1.00   0.13  0.00  0.00  0.00  0.00  0.00  0.87  0.00  0.00
  c_905541                1.00   0.13  0.61  0.00  0.25  0.00  0.01  0.00  0.01  0.00
  c_905551                1.00   0.13  0.00  0.00  0.03  0.00  0.00  0.84  0.00  0.00
  c_905561                1.00   0.13  0.00  0.00  0.87  0.00  0.00  0.00  0.00  0.00
  c_905571                1.00   0.13  0.00  0.00  0.87  0.00  0.00  0.00  0.00  0.00
  c_905572                1.00   0.13  0.46  0.00  0.41  0.00  0.00  0.00  0.50  0.00
  c_905581                1.00   0.13  0.00  0.00  0.04  0.00  0.00  0.82  0.00  0.00
  c_905591                1.00   0.13  0.49  0.00  0.38  0.00  0.00  0.00  0.74  0.00
  c_905601                1.00   0.62  0.03  0.00  0.35  0.00  0.00  0.00  0.53  0.00
  c_905602                1.00   0.65  0.05  0.00  0.30  0.00  0.00  0.00  0.86  0.00
  c_905611                1.00   0.13  0.55  0.00  0.32  0.00  0.00  0.00  0.67  0.00
  c_905621                1.00   0.13  0.55  0.00  0.32  0.00  0.00  0.00  0.74  0.00
  c_905622                1.00   0.13  0.56  0.00  0.31  0.00  0.00  0.00  0.86  0.00
  c_905631                1.00   0.13  0.00  0.00  0.00  0.00  0.00  0.87  0.00  0.00
  c_905632                1.00   0.13  0.00  0.00  0.87  0.00  0.00  0.00  0.00  0.00
  c_905641                1.00   0.13  0.00  0.00  0.30  0.00  0.00  0.57  0.05  0.00
  c_905651                1.00   0.13  0.00  0.00  0.00  0.00  0.00  0.87  0.00  0.00
  c_905661                1.00   0.13  0.00  0.00  0.00  0.00  0.00  0.87  0.00  0.00
  c_905681                1.00   0.13  0.00  0.00  0.87  0.00  0.00  0.00  0.61  0.00
  c_905682                1.00   0.13  0.00  0.00  0.00  0.00  0.00  0.87  0.00  0.00
  c_905691                1.00   0.13  0.60  0.00  0.28  0.00  0.00  0.00  0.86  0.00
  c_905701                1.00   0.13  0.00  0.00  0.00  0.00  0.00  0.87  0.00  0.00
  c_905711                1.00   0.13  0.00  0.00  0.30  0.00  0.00  0.57  0.26  0.00
  c_905721                1.00   0.13  0.00  0.00  0.34  0.00  0.00  0.53  0.01  0.00
  c_905722                1.00   0.13  0.00  0.00  0.10  0.00  0.00  0.77  0.08  0.00
  c_905731                1.00   0.13  0.00  0.00  0.29  0.00  0.00  0.58  0.00  0.00
  c_905732                1.00   0.13  0.00  0.00  0.07  0.00  0.00  0.80  0.03  0.00
  c_905741                1.00   0.13  0.27  0.00  0.60  0.00  0.00  0.00  0.59  0.00
  c_905751                1.00   0.13  0.18  0.00  0.69  0.00  0.00  0.00  0.58  0.00
  c_905752                1.00   0.13  0.00  0.00  0.87  0.00  0.00  0.00  0.45  0.00
  c_905761                1.00   0.13  0.00  0.00  0.87  0.00  0.00  0.00  0.03  0.00
  c_905771                1.00   0.13  0.00  0.00  0.87  0.00  0.00  0.00  0.22  0.00
  c_905781                1.00   0.13  0.47  0.00  0.41  0.00  0.00  0.00  0.52  0.00
  c_905791                1.00   0.59  0.03  0.00  0.37  0.00  0.00  0.00  0.57  0.00
  c_905811                1.00   0.65  0.07  0.00  0.28  0.00  0.00  0.00  0.86  0.00
  c_905821                1.00   0.13  0.00  0.00  0.87  0.00  0.00  0.00  0.00  0.00
  c_905831                1.00   0.13  0.59  0.00  0.28  0.00  0.00  0.00  0.86  0.00
  c_905841                1.00   0.13  0.52  0.00  0.35  0.00  0.00  0.00  0.85  0.00
  c_905851                1.00   0.13  0.10  0.00  0.77  0.00  0.00  0.00  0.55  0.00
  c_905852                1.00   0.13  0.00  0.00  0.07  0.00  0.00  0.81  0.04  0.00
  c_905861                1.00   0.13  0.00  0.00  0.38  0.00  0.00  0.49  0.00  0.00
  c_905862                1.00   0.13  0.00  0.00  0.00  0.00  0.00  0.87  0.00  0.00
  c_905871                1.00   0.13  0.13  0.00  0.74  0.00  0.00  0.00  0.55  0.00
  c_905881                1.00   0.13  0.00  0.00  0.12  0.00  0.00  0.75  0.11  0.00
  c_905891                1.00   0.13  0.58  0.00  0.29  0.00  0.00  0.00  0.80  0.00
  c_905892                1.00   0.71  0.02  0.00  0.26  0.00  0.00  0.00  0.86  0.00
  c_905901                1.00   0.68  0.03  0.00  0.29  0.00  0.00  0.00  0.86  0.00
  c_905902                1.00   0.71  0.00  0.00  0.20  0.00  0.00  0.08  0.00  0.00
  c_905921                1.00   0.13  0.25  0.00  0.62  0.00  0.00  0.00  0.58  0.00
  c_905931                1.00   0.13  0.00  0.00  0.87  0.00  0.00  0.00  0.00  0.00
  c_905941                1.00   0.13  0.17  0.00  0.70  0.00  0.00  0.00  0.59  0.00
  c_905942                1.00   0.13  0.00  0.00  0.26  0.00  0.61  0.00  0.00  0.00
  c_905951                1.00   0.13  0.00  0.00  0.00  0.00  0.00  0.87  0.00  0.00
  c_905961                1.00   0.13  0.00  0.00  0.03  0.00  0.00  0.84  0.01  0.00
  c_905971                1.00   0.13  0.52  0.00  0.35  0.00  0.00  0.00  0.82  0.00
  c_905981                1.00   0.13  0.58  0.00  0.29  0.00  0.00  0.00  0.84  0.00
  c_905982                1.00   0.65  0.06  0.00  0.29  0.00  0.00  0.00  0.66  0.00
  c_905991                1.00   0.13  0.00  0.00  0.87  0.00  0.00  0.00  0.00  0.00
  c_906001                1.00   0.65  0.06  0.00  0.29  0.00  0.00  0.00  0.86  0.00
  c_906011                1.00   0.71  0.01  0.00  0.28  0.00  0.00  0.00  0.84  0.00
  c_906031                1.00   0.13  0.00  0.00  0.27  0.00  0.00  0.60  0.00  0.00
  c_906041                1.00   0.13  0.61  0.00  0.26  0.00  0.00  0.00  0.86  0.00
  c_906051                1.00   0.13  0.50  0.00  0.37  0.00  0.00  0.00  0.85  0.00
  c_906052                1.00   0.13  0.00  0.00  0.11  0.00  0.00  0.76  0.04  0.00
  c_906061                1.00   0.13  0.33  0.00  0.54  0.00  0.00  0.00  0.78  0.00
  c_906071                1.00   0.13  0.45  0.00  0.42  0.00  0.00  0.00  0.60  0.00
  c_906081                1.00   0.58  0.04  0.00  0.38  0.00  0.00  0.00  0.70  0.00
  c_906082                1.00   0.13  0.00  0.00  0.87  0.00  0.00  0.00  0.84  0.00
  c_906091                1.00   0.13  0.56  0.00  0.31  0.00  0.00  0.00  0.86  0.00
  c_906101                1.00   0.13  0.56  0.00  0.31  0.00  0.00  0.00  0.84  0.00
  c_906111                1.00   0.13  0.00  0.00  0.30  0.00  0.00  0.57  0.29  0.00
  c_906112                1.00   0.13  0.00  0.00  0.27  0.00  0.00  0.60  0.00  0.00
  c_906121                1.00   0.13  0.57  0.00  0.30  0.00  0.00  0.00  0.85  0.00
  c_906131                1.00   0.70  0.01  0.00  0.28  0.00  0.00  0.00  0.86  0.00
  c_906132                1.00   0.71  0.00  0.00  0.28  0.00  0.00  0.00  0.86  0.00
  c_906151                1.00   0.13  0.00  0.00  0.14  0.00  0.00  0.73  0.01  0.00
  c_906161                1.00   0.13  0.57  0.00  0.30  0.00  0.00  0.00  0.86  0.00
  c_906171                1.00   0.70  0.01  0.00  0.29  0.00  0.00  0.00  0.86  0.00
  c_906181                1.00   0.13  0.58  0.00  0.29  0.00  0.00  0.00  0.86  0.00
  c_906191                1.00   0.13  0.00  0.00  0.87  0.00  0.00  0.00  0.53  0.00
  c_906192                1.00   0.13  0.00  0.00  0.87  0.00  0.00  0.00  0.48  0.00
  c_906201                1.00   0.13  0.00  0.00  0.87  0.00  0.00  0.00  0.00  0.00
  c_906202                1.00   0.13  0.00  0.00  0.00  0.00  0.00  0.87  0.00  0.00
  c_906211                1.00   0.13  0.00  0.00  0.87  0.00  0.00  0.00  0.50  0.00
  c_906231                1.00   0.13  0.00  0.00  0.87  0.00  0.00  0.00  0.57  0.00
  c_906241                1.00   0.64  0.02  0.00  0.34  0.00  0.00  0.00  0.59  0.00
  c_906261                1.00   0.65  0.01  0.00  0.33  0.00  0.00  0.00  0.70  0.00
  c_906271                1.00   0.65  0.01  0.00  0.34  0.00  0.00  0.01  0.55  0.00
  c_906272                1.00   0.13  0.00  0.00  0.87  0.00  0.00  0.00  0.00  0.00
  c_906281                1.00   0.13  0.00  0.00  0.00  0.00  0.00  0.87  0.00  0.00
  c_906291                1.00   0.13  0.56  0.00  0.32  0.00  0.00  0.00  0.86  0.00
  c_906301                1.00   0.13  0.00  0.00  0.00  0.00  0.00  0.87  0.00  0.00
  c_906321                1.00   0.68  0.32  0.00  0.00  0.00  0.00  0.00  0.00  0.00
  c_906322                1.00   0.13  0.00  0.00  0.22  0.00  0.00  0.65  0.00  0.00
  c_906331                1.00   0.13  0.00  0.00  0.87  0.00  0.00  0.00  0.60  0.00
  c_906341                1.00   0.13  0.00  0.00  0.08  0.00  0.00  0.79  0.07  0.00
  c_906342                1.00   0.13  0.00  0.00  0.45  0.00  0.00  0.41  0.00  0.00
  c_906351                1.00   0.67  0.07  0.00  0.26  0.00  0.00  0.00  0.76  0.00
  c_906352                1.00   0.13  0.00  0.00  0.28  0.00  0.00  0.60  0.00  0.00
  c_906361                1.00   0.13  0.00  0.00  0.28  0.00  0.00  0.59  0.26  0.00
  c_906371                1.00   0.13  0.00  0.00  0.87  0.00  0.00  0.00  0.75  0.00
  c_906381                1.00   0.13  0.00  0.00  0.00  0.00  0.00  0.87  0.00  0.00
  c_906391                1.00   0.13  0.47  0.00  0.40  0.00  0.00  0.00  0.85  0.00
  c_906401                1.00   0.13  0.86  0.00  0.00  0.00  0.01  0.00  0.00  0.00
  c_906402                1.00   0.13  0.00  0.00  0.09  0.00  0.00  0.78  0.00  0.00
  c_906411                1.00   0.63  0.01  0.00  0.36  0.00  0.00  0.00  0.57  0.00
  c_906421                1.00   0.64  0.03  0.00  0.33  0.00  0.00  0.00  0.69  0.00
  c_906431                1.00   0.67  0.01  0.00  0.32  0.00  0.00  0.00  0.60  0.00
  c_906441                1.00   0.13  0.00  0.00  0.00  0.00  0.00  0.87  0.00  0.00
  c_906461                1.00   0.13  0.50  0.00  0.37  0.00  0.00  0.00  0.86  0.00
  c_906471                1.00   0.69  0.01  0.00  0.30  0.00  0.00  0.00  0.86  0.00
  c_906481                1.00   0.13  0.57  0.00  0.30  0.00  0.00  0.00  0.86  0.00
  c_906491                1.00   0.76  0.00  0.00  0.19  0.00  0.00  0.05  0.00  0.00
  c_906492                1.00   0.13  0.00  0.00  0.00  0.00  0.00  0.87  0.00  0.00
  c_906501                1.00   0.13  0.00  0.00  0.87  0.00  0.00  0.00  0.86  0.00
  c_906511                1.00   0.13  0.47  0.00  0.40  0.00  0.00  0.00  0.86  0.00
  c_906521                1.00   0.60  0.05  0.00  0.35  0.00  0.00  0.00  0.56  0.00
  c_906531                1.00   0.65  0.05  0.00  0.30  0.00  0.00  0.00  0.86  0.00
  c_906541                1.00   0.13  0.00  0.00  0.87  0.00  0.00  0.00  0.58  0.00
  c_906561                1.00   0.13  0.00  0.00  0.32  0.00  0.55  0.00  0.00  0.00
  c_906562                1.00   0.13  0.00  0.00  0.87  0.00  0.00  0.00  0.00  0.00
  c_906563                1.00   0.13  0.00  0.00  0.00  0.00  0.00  0.87  0.00  0.00
  c_906581                1.00   0.70  0.02  0.00  0.28  0.00  0.00  0.00  0.86  0.00
  c_906591                1.00   0.13  0.00  0.00  0.00  0.00  0.00  0.87  0.00  0.00
  c_906592                1.00   0.13  0.57  0.00  0.30  0.00  0.00  0.00  0.85  0.00
  c_906621                1.00   0.13  0.00  0.00  0.00  0.00  0.00  0.87  0.00  0.00
  c_906622                1.00   0.13  0.00  0.00  0.83  0.04  0.00  0.00  0.61  0.00
  c_906631                1.00   0.13  0.00  0.00  0.00  0.00  0.00  0.87  0.00  0.00
  c_906641                1.00   0.13  0.00  0.00  0.17  0.00  0.00  0.70  0.00  0.00
  c_906651                1.00   0.13  0.00  0.00  0.43  0.00  0.00  0.44  0.00  0.00
  c_906701                1.00   0.13  0.00  0.00  0.87  0.00  0.00  0.00  0.00  0.00
  c_906731                1.00   0.13  0.00  0.00  0.28  0.00  0.00  0.59  0.00  0.00
  c_906741                1.00   0.13  0.00  0.00  0.87  0.00  0.00  0.00  0.00  0.00
  c_906742                1.00   0.13  0.00  0.00  0.47  0.00  0.00  0.40  0.15  0.00
  c_906751                1.00   0.44  0.23  0.00  0.34  0.00  0.00  0.00  0.58  0.00
  c_906761                1.00   0.13  0.00  0.00  0.87  0.00  0.00  0.00  0.00  0.00
  c_906771                1.00   0.13  0.00  0.00  0.87  0.00  0.00  0.00  0.00  0.00
  c_906772                1.00   0.13  0.00  0.00  0.87  0.00  0.00  0.00  0.00  0.00
  c_906781                1.00   0.13  0.52  0.00  0.35  0.00  0.00  0.00  0.80  0.00
  c_906791                1.00   0.65  0.06  0.00  0.29  0.00  0.00  0.00  0.66  0.00
  c_906801                1.00   0.13  0.00  0.00  0.29  0.00  0.00  0.58  0.08  0.00
  c_906811                1.00   0.13  0.00  0.00  0.87  0.00  0.00  0.00  0.75  0.00
  c_906821                1.00   0.13  0.53  0.00  0.34  0.00  0.00  0.00  0.86  0.00
  c_906831                1.00   0.13  0.00  0.00  0.00  0.00  0.00  0.87  0.00  0.00
  c_906832                1.00   0.13  0.00  0.00  0.87  0.00  0.00  0.00  0.81  0.00
  c_906841                1.00   0.13  0.00  0.00  0.23  0.00  0.00  0.64  0.00  0.00
  c_906851                1.00   0.13  0.00  0.00  0.00  0.00  0.00  0.87  0.00  0.00
  c_906861                1.00   0.13  0.52  0.00  0.35  0.00  0.00  0.00  0.60  0.00
  c_906862                1.00   0.65  0.05  0.00  0.30  0.00  0.00  0.00  0.71  0.00
  c_906891                1.00   0.13  0.00  0.00  0.00  0.00  0.00  0.87  0.00  0.00
  c_906892                1.00   0.13  0.00  0.00  0.00  0.00  0.00  0.87  0.00  0.00
  c_906901                1.00   0.13  0.46  0.00  0.41  0.00  0.00  0.00  0.86  0.00
  c_906911                1.00   0.13  0.00  0.00  0.00  0.00  0.00  0.87  0.00  0.00
  c_906921                1.00   0.13  0.52  0.00  0.35  0.00  0.00  0.00  0.86  0.00
  c_906931                1.00   0.65  0.35  0.00  0.00  0.00  0.00  0.00  0.00  0.00
  c_906932                1.00   0.13  0.00  0.00  0.00  0.00  0.00  0.87  0.00  0.00
  c_906941                1.00   0.13  0.87  0.00  0.00  0.00  0.00  0.00  0.00  0.00
  c_906951                1.00   0.13  0.00  0.00  0.00  0.00  0.00  0.87  0.00  0.00
  c_906961                1.00   0.13  0.00  0.00  0.87  0.00  0.00  0.00  0.86  0.00
  c_906971                1.00   0.13  0.00  0.00  0.87  0.00  0.00  0.00  0.86  0.00
  c_906981                1.00   0.13  0.00  0.00  0.87  0.00  0.00  0.00  0.85  0.00
  c_906991                1.00   0.13  0.00  0.00  0.87  0.00  0.00  0.00  0.83  0.00
  c_906992                1.00   0.59  0.04  0.00  0.38  0.00  0.00  0.00  0.85  0.00
  c_907001                1.00   0.13  0.00  0.00  0.00  0.00  0.00  0.87  0.00  0.00
  c_907011                1.00   0.13  0.00  0.00  0.00  0.00  0.00  0.87  0.00  0.00
  c_907021                1.00   0.13  0.00  0.00  0.00  0.00  0.00  0.87  0.00  0.00
  c_907031                1.00   0.13  0.50  0.00  0.38  0.00  0.00  0.00  0.59  0.00
  c_907032                1.00   0.13  0.00  0.00  0.08  0.00  0.00  0.79  0.04  0.00
  c_907033                1.00   0.13  0.00  0.00  0.33  0.00  0.00  0.54  0.13  0.00
  c_907041                1.00   0.13  0.00  0.00  0.12  0.00  0.00  0.75  0.00  0.00
  c_907042                1.00   0.13  0.58  0.00  0.29  0.00  0.00  0.00  0.62  0.00
  c_907051                1.00   0.74  0.26  0.00  0.00  0.00  0.00  0.00  0.00  0.00
  c_907061                1.00   0.13  0.00  0.00  0.87  0.00  0.00  0.00  0.00  0.00
  c_907062                1.00   0.13  0.00  0.00  0.87  0.00  0.00  0.00  0.71  0.00
  c_907071                1.00   0.13  0.00  0.00  0.01  0.00  0.00  0.86  0.00  0.00
  c_907081                1.00   0.13  0.00  0.00  0.00  0.00  0.00  0.87  0.00  0.00
  c_907091                1.00   0.13  0.43  0.00  0.44  0.00  0.00  0.00  0.85  0.00
  c_907101                1.00   0.56  0.11  0.00  0.34  0.00  0.00  0.00  0.85  0.00
  c_907241                1.00   0.13  0.00  0.00  0.87  0.00  0.00  0.00  0.00  0.00
  c_907242                1.00   0.13  0.00  0.00  0.87  0.00  0.00  0.00  0.00  0.00
  c_907251                1.00   0.13  0.00  0.00  0.33  0.00  0.00  0.54  0.85  0.00
  c_907261                1.00   0.13  0.58  0.00  0.29  0.00  0.00  0.00  0.86  0.00
  c_907271                1.00   0.71  0.01  0.00  0.28  0.00  0.00  0.00  0.85  0.00
  c_907281                1.00   0.62  0.38  0.00  0.00  0.00  0.00  0.00  0.00  0.00
  c_907291                1.00   0.62  0.05  0.00  0.33  0.00  0.00  0.00  0.86  0.00
  c_907301                1.00   0.59  0.03  0.00  0.38  0.00  0.00  0.00  0.86  0.00
  c_907311                1.00   0.59  0.05  0.00  0.37  0.00  0.00  0.00  0.86  0.00
  c_907321                1.00   0.63  0.08  0.00  0.29  0.00  0.00  0.00  0.86  0.00
  c_907331                1.00   0.13  0.46  0.00  0.41  0.00  0.00  0.00  0.84  0.00
  c_907332                1.00   0.13  0.00  0.00  0.33  0.00  0.00  0.54  0.06  0.00
  c_912721                1.00   1.00  0.00  0.00  0.00  0.00  0.00  0.00  0.00  0.00
  c_912731                1.00   1.00  0.00  0.00  0.00  0.00  0.00  0.00  0.00  0.00
  c_912741                1.00   1.00  0.00  0.00  0.00  0.00  0.00  0.00  0.00  0.00
  c_912751                1.00   1.00  0.00  0.00  0.00  0.00  0.00  0.00  0.00  0.00
  c_912761                1.00   1.00  0.00  0.00  0.00  0.00  0.00  0.00  0.00  0.00
  c_912771                1.00   1.00  0.00  0.00  0.00  0.00  0.00  0.00  0.00  0.00
  c_912781                1.00   1.00  0.00  0.00  0.00  0.00  0.00  0.00  0.00  0.00
  c_912791                1.00   1.00  0.00  0.00  0.00  0.00  0.00  0.00  0.00  0.00
  c_912931                1.00   1.00  0.00  0.00  0.00  0.00  0.00  0.00  0.00  0.00
  c_912932                1.00   1.00  0.00  0.00  0.00  0.00  0.00  0.00  0.00  0.00
  c_912941                1.00   1.00  0.00  0.00  0.00  0.00  0.00  0.00  0.00  0.00
  
  
  *************************
  Conduit Surcharge Summary
  *************************
  
  ----------------------------------------------------------------------------
                                                           Hours        Hours 
                         --------- Hours Full --------   Above Full   Capacity
  Conduit                Both Ends  Upstream  Dnstream   Normal Flow   Limited
  ----------------------------------------------------------------------------
  c_905632                    0.01      0.01      0.01      1.10         0.01
  c_905861                    0.01      0.01      0.01      1.74         0.01
  c_905931                    0.01      0.01      0.01      1.28         0.01
  c_905942                    0.01      0.01      0.01      0.12         0.01
  c_906201                    0.01      0.01      0.01      0.71         0.01
  

  Analysis begun on:  Sun Jun 12 01:33:17 2022
  Analysis ended on:  Sun Jun 12 01:33:24 2022
  Total elapsed time: 00:00:07