
  EPA STORM WATER MANAGEMENT MODEL - VERSION 5.1 (Build 5.1.015)
  --------------------------------------------------------------

  WARNING 04: minimum elevation drop used for Conduit c_903642
  WARNING 04: minimum elevation drop used for Conduit c_903651
  WARNING 04: minimum elevation drop used for Conduit c_903672
  WARNING 04: minimum elevation drop used for Conduit c_905571
  WARNING 04: minimum elevation drop used for Conduit c_905632
  WARNING 04: minimum elevation drop used for Conduit c_905821
  WARNING 04: minimum elevation drop used for Conduit c_905861
  WARNING 04: minimum elevation drop used for Conduit c_905931
  WARNING 04: minimum elevation drop used for Conduit c_906201
  WARNING 04: minimum elevation drop used for Conduit c_906322
  WARNING 04: minimum elevation drop used for Conduit c_906631
  WARNING 04: minimum elevation drop used for Conduit c_906641
  WARNING 04: minimum elevation drop used for Conduit c_906651
  WARNING 04: minimum elevation drop used for Conduit c_906731
  WARNING 04: minimum elevation drop used for Conduit c_906741
  WARNING 04: minimum elevation drop used for Conduit c_907242
  
  *********************
  Rainfall File Summary
  *********************
  Station    First        Last         Recording   Periods    Periods    Periods
  ID         Date         Date         Frequency  w/Precip    Missing    Malfunc.
  -------------------------------------------------------------------------------
  R1         01/06/2014   01/07/2014       5 min       304          0          0
  R1         01/06/2014   01/07/2014       5 min       304          0          0
  R1         01/06/2014   01/07/2014       5 min       304          0          0

  
  *********************************************************
  NOTE: The summary statistics displayed in this report are
  based on results found at every computational time step,  
  not just on results from each reporting time step.
  *********************************************************
  
  ****************
  Analysis Options
  ****************
  Flow Units ............... CMS
  Process Models:
    Rainfall/Runoff ........ YES
    RDII ................... NO
    Snowmelt ............... NO
    Groundwater ............ NO
    Flow Routing ........... YES
    Ponding Allowed ........ NO
    Water Quality .......... NO
  Infiltration Method ...... HORTON
  Flow Routing Method ...... DYNWAVE
  Surcharge Method ......... EXTRAN
  Starting Date ............ 01/06/2014 00:00:00
  Ending Date .............. 01/07/2014 02:35:00
  Antecedent Dry Days ...... 0.0
  Report Time Step ......... 00:05:00
  Wet Time Step ............ 00:01:00
  Dry Time Step ............ 00:10:00
  Routing Time Step ........ 1.00 sec
  Variable Time Step ....... YES
  Maximum Trials ........... 12
  Number of Threads ........ 2
  Head Tolerance ........... 0.000200 m
  
  
  **************************        Volume         Depth
  Runoff Quantity Continuity     hectare-m            mm
  **************************     ---------       -------
  Total Precipitation ......         1.068        38.500
  Evaporation Loss .........         0.025         0.895
  Infiltration Loss ........         0.048         1.725
  Surface Runoff ...........         0.901        32.457
  Final Storage ............         0.100         3.586
  Continuity Error (%) .....        -0.424
  
  
  **************************        Volume        Volume
  Flow Routing Continuity        hectare-m      10^6 ltr
  **************************     ---------     ---------
  Dry Weather Inflow .......         0.000         0.000
  Wet Weather Inflow .......         0.901         9.006
  Groundwater Inflow .......         0.000         0.000
  RDII Inflow ..............         0.000         0.000
  External Inflow ..........         0.000         0.000
  External Outflow .........         0.872         8.720
  Flooding Loss ............         0.032         0.317
  Evaporation Loss .........         0.000         0.000
  Exfiltration Loss ........         0.000         0.000
  Initial Stored Volume ....         0.000         0.000
  Final Stored Volume ......         0.001         0.006
  Continuity Error (%) .....        -0.416
  
  
  *************************
  Highest Continuity Errors
  *************************
  Node j_91293 (4.43%)
  Node j_90584 (1.85%)
  Node j_90705 (1.34%)
  Node j_90650 (1.23%)
  Node j_90565 (1.11%)
  
  
  ***************************
  Time-Step Critical Elements
  ***************************
  Link c_904312 (8.10%)
  
  
  ********************************
  Highest Flow Instability Indexes
  ********************************
  All links are stable.
  
  
  *************************
  Routing Time Step Summary
  *************************
  Minimum Time Step           :     0.01 sec
  Average Time Step           :     0.97 sec
  Maximum Time Step           :     1.00 sec
  Percent in Steady State     :     0.31
  Average Iterations per Step :     2.25
  Percent Not Converging      :     1.96
  Time Step Frequencies       :
      1.000 -  0.871 sec      :    93.38 %
      0.871 -  0.758 sec      :     0.71 %
      0.758 -  0.660 sec      :     0.49 %
      0.660 -  0.574 sec      :     1.33 %
      0.574 -  0.500 sec      :     4.09 %
  
  
  ***************************
  Subcatchment Runoff Summary
  ***************************
  
  ------------------------------------------------------------------------------------------------------------------------------
                            Total      Total      Total      Total     Imperv       Perv      Total       Total     Peak  Runoff
                           Precip      Runon       Evap      Infil     Runoff     Runoff     Runoff      Runoff   Runoff   Coeff
  Subcatchment                 mm         mm         mm         mm         mm         mm         mm    10^6 ltr      CMS
  ------------------------------------------------------------------------------------------------------------------------------
  sub_9006F                 38.50       0.00       0.92       1.43      21.18      11.16      32.34        0.01     0.01   0.840
  sub_90334                 38.50       0.00       0.71       3.78       3.83      29.44      33.28        0.04     0.02   0.864
  sub_90335                 38.50       0.00       0.97       0.87      25.35       6.77      32.11        0.06     0.04   0.834
  sub_90336                 38.50       0.00       0.79       2.91      10.25      22.68      32.93        0.01     0.01   0.855
  sub_90363                 38.50       0.00       0.97       0.87      25.30       6.82      32.12        0.07     0.04   0.834
  sub_90364                 38.50       0.00       0.76       3.20       8.09      24.96      33.05        0.02     0.01   0.858
  sub_90365                 38.50       0.00       0.66       4.30       0.00      33.49      33.49        0.00     0.00   0.870
  sub_90366                 38.50       0.00       0.92       1.45      21.03      11.32      32.35        0.02     0.01   0.840
  sub_90367                 38.50       0.00       0.83       2.45      13.68      19.06      32.74        0.02     0.01   0.851
  sub_90369                 38.50       0.00       0.89       1.75      18.82      13.64      32.47        0.05     0.03   0.843
  sub_90370                 38.50       0.00       0.94       1.18      23.06       9.17      32.24        0.02     0.01   0.837
  sub_90371                 38.50       0.00       1.00       0.61      27.23       4.78      32.01        0.03     0.02   0.831
  sub_90372                 38.50       0.00       0.81       2.71      11.70      21.15      32.85        0.01     0.01   0.853
  sub_90373                 38.50       0.00       1.03       0.19      30.38       1.46      31.84        0.02     0.01   0.827
  sub_90375                 38.50       0.00       0.97       0.86      25.41       6.70      32.11        0.03     0.02   0.834
  sub_90376                 38.50       0.00       0.91       1.53      20.42      11.96      32.38        0.00     0.00   0.841
  sub_90377                 38.50       0.00       0.97       0.91      25.05       7.07      32.13        0.02     0.01   0.835
  sub_90378                 38.50       0.00       0.94       1.21      22.81       9.44      32.25        0.03     0.02   0.838
  sub_90379                 38.50       0.00       0.87       2.03      16.72      15.86      32.58        0.04     0.02   0.846
  sub_90380                 38.50       0.00       0.88       1.85      18.08      14.42      32.51        0.04     0.03   0.844
  sub_90381                 38.50       0.00       0.88       1.87      17.92      14.60      32.52        0.03     0.02   0.845
  sub_90382                 38.50       0.00       0.91       1.55      20.28      12.11      32.39        0.03     0.02   0.841
  sub_90383                 38.50       0.00       0.93       1.33      21.96      10.34      32.30        0.03     0.02   0.839
  sub_90384                 38.50       0.00       0.82       2.54      13.00      19.79      32.78        0.01     0.01   0.851
  sub_90385                 38.50       0.00       0.95       1.12      23.46       8.76      32.22        0.02     0.01   0.837
  sub_90386                 38.50       0.00       0.87       2.05      16.57      16.01      32.59        0.04     0.02   0.846
  sub_90387                 38.50       0.00       0.91       1.60      19.91      12.50      32.41        0.02     0.02   0.842
  sub_90388                 38.50       0.00       0.91       1.59      20.03      12.38      32.40        0.01     0.01   0.842
  sub_90389                 38.50       0.00       0.89       1.76      18.75      13.72      32.47        0.02     0.01   0.843
  sub_90390                 38.50       0.00       0.85       2.21      15.40      17.25      32.65        0.01     0.01   0.848
  sub_90391                 38.50       0.00       0.66       4.30       0.00      33.49      33.49        0.01     0.01   0.870
  sub_90392                 38.50       0.00       0.80       2.75      11.45      21.42      32.87        0.03     0.02   0.854
  sub_90393                 38.50       0.00       0.81       2.71      11.71      21.14      32.85        0.05     0.03   0.853
  sub_90394                 38.50       0.00       0.82       2.58      12.71      20.09      32.80        0.01     0.01   0.852
  sub_90395                 38.50       0.00       0.96       1.00      24.39       7.77      32.17        0.02     0.01   0.835
  sub_90396                 38.50       0.00       1.05       0.00      31.77       0.00      31.77        0.01     0.00   0.825
  sub_90397                 38.50       0.00       0.84       2.32      14.62      18.07      32.69        0.02     0.01   0.849
  sub_90398                 38.50       0.00       0.83       2.42      13.87      18.87      32.73        0.02     0.01   0.850
  sub_90399                 38.50       0.00       0.93       1.36      21.73      10.57      32.31        0.02     0.02   0.839
  sub_90400                 38.50       0.00       0.91       1.61      19.85      12.56      32.41        0.02     0.01   0.842
  sub_90401                 38.50       0.00       0.97       0.95      24.75       7.39      32.15        0.02     0.02   0.835
  sub_90402                 38.50       0.00       0.96       1.00      24.34       7.83      32.17        0.02     0.02   0.836
  sub_90403                 38.50       0.00       0.90       1.62      19.77      12.65      32.42        0.01     0.01   0.842
  sub_90404                 38.50       0.00       0.90       1.71      19.15      13.30      32.45        0.02     0.01   0.843
  sub_90405                 38.50       0.00       0.88       1.87      17.92      14.60      32.52        0.03     0.02   0.845
  sub_90406                 38.50       0.00       0.85       2.27      15.00      17.67      32.67        0.02     0.01   0.849
  sub_90407                 38.50       0.00       0.85       2.22      15.32      17.34      32.66        0.02     0.01   0.848
  sub_90408                 38.50       0.00       0.92       1.42      21.25      11.09      32.34        0.05     0.03   0.840
  sub_90427                 38.50       0.00       0.90       1.67      19.42      13.01      32.43        0.05     0.03   0.842
  sub_90428                 38.50       0.00       0.87       2.03      16.78      15.80      32.58        0.03     0.02   0.846
  sub_90430                 38.50       0.00       0.96       0.96      24.63       7.52      32.15        0.02     0.01   0.835
  sub_90431                 38.50       0.00       0.91       1.56      20.26      12.13      32.39        0.02     0.01   0.841
  sub_90433                 38.50       0.00       0.86       2.15      15.88      16.74      32.63        0.01     0.00   0.847
  sub_90434                 38.50       0.00       0.98       0.77      26.09       5.98      32.07        0.02     0.01   0.833
  sub_90435                 38.50       0.00       0.93       1.36      21.68      10.64      32.31        0.03     0.02   0.839
  sub_90436                 38.50       0.00       0.99       0.69      26.68       5.36      32.04        0.02     0.01   0.832
  sub_90437                 38.50       0.00       0.95       1.08      23.75       8.45      32.20        0.04     0.02   0.836
  sub_90438                 38.50       0.00       0.91       1.53      20.45      11.93      32.38        0.03     0.02   0.841
  sub_90439                 38.50       0.00       0.91       1.55      20.33      12.05      32.39        0.02     0.01   0.841
  sub_90440                 38.50       0.00       0.89       1.75      18.81      13.66      32.47        0.05     0.03   0.843
  sub_90441                 38.50       0.00       0.79       2.86      10.59      22.32      32.91        0.02     0.01   0.855
  sub_90442                 38.50       0.00       0.75       3.37       6.88      26.23      33.11        0.05     0.03   0.860
  sub_90443                 38.50       0.00       0.82       2.51      13.22      19.55      32.77        0.07     0.05   0.851
  sub_90444                 38.50       0.00       0.94       1.21      22.84       9.41      32.25        0.03     0.02   0.838
  sub_90445                 38.50       0.00       0.86       2.12      16.09      16.53      32.61        0.03     0.02   0.847
  sub_90446                 38.50       0.00       0.94       1.28      22.28      10.00      32.28        0.02     0.02   0.838
  sub_90447                 38.50       0.00       0.87       2.00      17.00      15.57      32.57        0.04     0.02   0.846
  sub_90448                 38.50       0.00       0.88       1.86      18.04      14.47      32.51        0.04     0.03   0.844
  sub_90449                 38.50       0.00       0.89       1.75      18.82      13.64      32.47        0.02     0.01   0.843
  sub_90450                 38.50       0.00       0.92       1.48      20.81      11.55      32.36        0.01     0.01   0.840
  sub_90451                 38.50       0.00       0.88       1.88      17.85      14.67      32.52        0.03     0.02   0.845
  sub_90452                 38.50       0.00       0.83       2.42      13.90      18.84      32.73        0.02     0.01   0.850
  sub_90453                 38.50       0.00       0.94       1.24      22.58       9.68      32.26        0.03     0.02   0.838
  sub_90454                 38.50       0.00       0.90       1.67      19.39      13.04      32.44        0.03     0.02   0.842
  sub_90455                 38.50       0.00       0.97       0.92      24.96       7.18      32.13        0.03     0.02   0.835
  sub_90456                 38.50       0.00       0.83       2.49      13.34      19.42      32.76        0.05     0.03   0.851
  sub_90457                 38.50       0.00       0.83       2.45      13.64      19.11      32.75        0.05     0.03   0.851
  sub_90459                 38.50       0.00       0.78       2.97       9.77      23.18      32.96        0.06     0.04   0.856
  sub_90460                 38.50       0.00       0.69       3.98       2.30      31.06      33.36        0.03     0.02   0.867
  sub_90461                 38.50       0.00       0.92       1.43      21.18      11.16      32.34        0.01     0.01   0.840
  sub_90462                 38.50       0.00       0.87       2.02      16.84      15.73      32.57        0.03     0.02   0.846
  sub_90463                 38.50       0.00       0.96       1.04      24.10       8.08      32.18        0.03     0.02   0.836
  sub_90464                 38.50       0.00       0.90       1.73      19.00      13.46      32.46        0.03     0.02   0.843
  sub_90465                 38.50       0.00       0.97       0.92      24.96       7.18      32.13        0.03     0.02   0.835
  sub_90466                 38.50       0.00       0.91       1.61      19.85      12.56      32.41        0.03     0.02   0.842
  sub_90467                 38.50       0.00       0.98       0.79      25.94       6.15      32.08        0.05     0.03   0.833
  sub_90468                 38.50       0.00       0.91       1.53      20.48      11.90      32.38        0.04     0.02   0.841
  sub_90469                 38.50       0.00       0.97       0.92      24.96       7.18      32.13        0.03     0.02   0.835
  sub_90470                 38.50       0.00       0.91       1.58      20.08      12.32      32.40        0.03     0.02   0.842
  sub_90471                 38.50       0.00       0.93       1.31      22.08      10.21      32.29        0.03     0.02   0.839
  sub_90477                 38.50       0.00       0.97       0.89      25.15       6.98      32.12        0.05     0.03   0.834
  sub_90478                 38.50       0.00       0.96       1.04      24.10       8.08      32.18        0.03     0.02   0.836
  sub_90479                 38.50       0.00       0.83       2.46      13.55      19.20      32.75        0.02     0.02   0.851
  sub_90480                 38.50       0.00       0.94       1.21      22.80       9.45      32.25        0.04     0.03   0.838
  sub_90481                 38.50       0.00       0.91       1.54      20.40      11.98      32.38        0.03     0.02   0.841
  sub_90482                 38.50       0.00       0.91       1.60      19.92      12.49      32.41        0.02     0.01   0.842
  sub_90483                 38.50       0.00       0.76       3.22       7.94      25.11      33.06        0.03     0.02   0.859
  sub_90484                 38.50       0.00       0.93       1.34      21.84      10.46      32.30        0.03     0.02   0.839
  sub_90485                 38.50       0.00       0.83       2.42      13.87      18.87      32.73        0.05     0.03   0.850
  sub_90486                 38.50       0.00       0.89       1.80      18.49      13.99      32.48        0.04     0.03   0.844
  sub_90487                 38.50       0.00       0.91       1.54      20.40      11.98      32.38        0.06     0.04   0.841
  sub_90488                 38.50       0.00       0.88       1.88      17.88      14.63      32.52        0.04     0.03   0.845
  sub_90489                 38.50       0.00       0.97       0.95      24.75       7.40      32.15        0.03     0.02   0.835
  sub_90490                 38.50       0.00       0.97       0.85      25.48       6.62      32.11        0.03     0.02   0.834
  sub_90491                 38.50       0.00       0.96       1.00      24.36       7.80      32.17        0.03     0.02   0.835
  sub_90492                 38.50       0.00       0.93       1.35      21.81      10.50      32.31        0.04     0.02   0.839
  sub_90493                 38.50       0.00       0.97       0.92      24.98       7.15      32.13        0.03     0.02   0.835
  sub_90494                 38.50       0.00       0.97       0.88      25.28       6.84      32.12        0.03     0.02   0.834
  sub_90495                 38.50       0.00       0.93       1.37      21.60      10.72      32.32        0.03     0.02   0.839
  sub_90496                 38.50       0.00       0.97       0.92      24.98       7.15      32.13        0.03     0.02   0.835
  sub_90497                 38.50       0.00       0.98       0.82      25.68       6.41      32.10        0.03     0.02   0.834
  sub_90498                 38.50       0.00       0.91       1.55      20.32      12.06      32.39        0.05     0.03   0.841
  sub_90499                 38.50       0.00       0.81       2.70      11.83      21.02      32.85        0.04     0.03   0.853
  sub_90500                 38.50       0.00       0.87       1.98      17.14      15.41      32.56        0.04     0.03   0.846
  sub_90501                 38.50       0.00       0.97       0.87      25.35       6.76      32.11        0.03     0.02   0.834
  sub_90502                 38.50       0.00       0.90       1.70      19.19      13.26      32.45        0.03     0.02   0.843
  sub_90503                 38.50       0.00       0.97       0.95      24.71       7.44      32.15        0.02     0.01   0.835
  sub_90504                 38.50       0.00       0.97       0.89      25.21       6.92      32.12        0.03     0.02   0.834
  sub_90505                 38.50       0.00       0.96       1.04      24.08       8.11      32.18        0.03     0.02   0.836
  sub_90506                 38.50       0.00       0.95       1.14      23.37       8.85      32.22        0.03     0.02   0.837
  sub_90507                 38.50       0.00       0.94       1.19      22.98       9.26      32.24        0.03     0.02   0.837
  sub_90508                 38.50       0.00       0.95       1.15      23.24       8.98      32.23        0.03     0.02   0.837
  sub_90509                 38.50       0.00       0.84       2.38      14.17      18.55      32.72        0.02     0.02   0.850
  sub_90510                 38.50       0.00       0.95       1.07      23.82       8.37      32.20        0.03     0.02   0.836
  sub_90511                 38.50       0.00       0.88       1.84      18.15      14.35      32.50        0.02     0.01   0.844
  sub_90512                 38.50       0.00       0.94       1.22      22.73       9.52      32.25        0.03     0.02   0.838
  sub_90513                 38.50       0.00       0.98       0.84      25.58       6.52      32.10        0.06     0.04   0.834
  sub_90514                 38.50       0.00       0.95       1.11      23.55       8.66      32.21        0.04     0.02   0.837
  sub_90515                 38.50       0.00       0.88       1.95      17.35      15.19      32.55        0.04     0.02   0.845
  sub_90516                 38.50       0.00       0.81       2.72      11.63      21.22      32.86        0.02     0.01   0.853
  sub_90517                 38.50       0.00       0.87       1.97      17.21      15.35      32.55        0.02     0.01   0.846
  sub_90518                 38.50       0.00       1.00       0.59      27.41       4.60      32.00        0.02     0.01   0.831
  sub_90519                 38.50       0.00       0.85       2.19      15.58      17.06      32.64        0.07     0.04   0.848
  sub_90520                 38.50       0.00       0.86       2.13      16.01      16.60      32.62        0.04     0.02   0.847
  sub_90521                 38.50       0.00       0.94       1.26      22.48       9.79      32.27        0.02     0.01   0.838
  sub_90522                 38.50       0.00       0.96       1.01      24.33       7.84      32.17        0.02     0.01   0.836
  sub_90523                 38.50       0.00       0.94       1.25      22.54       9.72      32.27        0.04     0.03   0.838
  sub_90524                 38.50       0.00       0.86       2.10      16.26      16.34      32.61        0.05     0.03   0.847
  sub_90525                 38.50       0.00       0.81       2.64      12.24      20.59      32.82        0.08     0.05   0.853
  sub_90526                 38.50       0.00       0.86       2.12      16.08      16.53      32.61        0.03     0.02   0.847
  sub_90527                 38.50       0.00       0.80       2.74      11.52      21.34      32.86        0.03     0.02   0.854
  sub_90549                 38.50       0.00       0.87       1.99      17.07      15.49      32.56        0.02     0.01   0.846
  sub_90550                 38.50       0.00       1.05       0.00      31.77       0.00      31.77        0.01     0.01   0.825
  sub_90551                 38.50       0.00       0.84       2.32      14.58      18.12      32.70        0.02     0.01   0.849
  sub_90552                 38.50       0.00       0.97       0.95      24.73       7.42      32.15        0.10     0.06   0.835
  sub_90553                 38.50       0.00       0.85       2.23      15.29      17.36      32.66        0.02     0.01   0.848
  sub_90554                 38.50       0.00       0.86       2.12      16.09      16.53      32.61        0.03     0.02   0.847
  sub_90555                 38.50       0.00       0.82       2.59      12.63      20.17      32.80        0.03     0.02   0.852
  sub_90556                 38.50       0.00       0.79       2.83      10.80      22.10      32.90        0.05     0.03   0.855
  sub_90557                 38.50       0.00       0.92       1.46      20.97      11.38      32.35        0.03     0.02   0.840
  sub_90558                 38.50       0.00       0.92       1.47      20.86      11.49      32.36        0.05     0.03   0.840
  sub_90559                 38.50       0.00       0.84       2.31      14.66      18.03      32.69        0.03     0.02   0.849
  sub_90560                 38.50       0.00       0.88       1.91      17.65      14.88      32.53        0.05     0.03   0.845
  sub_90561                 38.50       0.00       0.90       1.70      19.21      13.24      32.45        0.04     0.03   0.843
  sub_90562                 38.50       0.00       0.91       1.57      20.14      12.25      32.40        0.04     0.03   0.841
  sub_90563                 38.50       0.00       0.92       1.48      20.79      11.57      32.36        0.04     0.02   0.841
  sub_90564                 38.50       0.00       0.94       1.28      22.27      10.01      32.28        0.03     0.02   0.838
  sub_90565                 38.50       0.00       0.89       1.83      18.24      14.26      32.50        0.03     0.02   0.844
  sub_90566                 38.50       0.00       0.88       1.88      17.89      14.63      32.52        0.03     0.02   0.845
  sub_90567                 38.50       0.00       0.85       2.23      15.25      17.41      32.66        0.02     0.02   0.848
  sub_90568                 38.50       0.00       1.05       0.00      31.77       0.00      31.77        0.01     0.01   0.825
  sub_90569                 38.50       0.00       0.87       2.06      16.55      16.04      32.59        0.02     0.01   0.846
  sub_90570                 38.50       0.00       0.83       2.45      13.61      19.13      32.75        0.02     0.01   0.851
  sub_90571                 38.50       0.00       0.93       1.32      22.02      10.27      32.29        0.03     0.02   0.839
  sub_90572                 38.50       0.00       0.93       1.31      22.08      10.21      32.29        0.03     0.02   0.839
  sub_90573                 38.50       0.00       0.97       0.88      25.28       6.84      32.12        0.03     0.02   0.834
  sub_90574                 38.50       0.00       0.96       1.00      24.41       7.76      32.16        0.03     0.02   0.835
  sub_90575                 38.50       0.00       0.90       1.63      19.72      12.70      32.42        0.04     0.02   0.842
  sub_90576                 38.50       0.00       0.89       1.77      18.67      13.81      32.47        0.04     0.02   0.844
  sub_90577                 38.50       0.00       0.90       1.72      19.06      13.39      32.45        0.03     0.02   0.843
  sub_90578                 38.50       0.00       0.92       1.50      20.68      11.68      32.37        0.04     0.03   0.841
  sub_90579                 38.50       0.00       0.94       1.25      22.49       9.78      32.27        0.04     0.02   0.838
  sub_90580                 38.50       0.00       0.82       2.60      12.50      20.31      32.81        0.03     0.02   0.852
  sub_90581                 38.50       0.00       0.86       2.10      16.24      16.37      32.61        0.03     0.02   0.847
  sub_90582                 38.50       0.00       0.90       1.65      19.57      12.85      32.43        0.03     0.02   0.842
  sub_90583                 38.50       0.00       0.86       2.06      16.53      16.06      32.59        0.03     0.02   0.847
  sub_90584                 38.50       0.00       0.95       1.15      23.23       9.00      32.23        0.03     0.02   0.837
  sub_90585                 38.50       0.00       0.95       1.15      23.26       8.97      32.23        0.04     0.02   0.837
  sub_90586                 38.50       0.00       0.94       1.27      22.40       9.87      32.27        0.03     0.02   0.838
  sub_90587                 38.50       0.00       0.93       1.40      21.44      10.88      32.32        0.03     0.02   0.840
  sub_90588                 38.50       0.00       0.96       0.96      24.66       7.49      32.15        0.02     0.02   0.835
  sub_90589                 38.50       0.00       0.91       1.57      20.15      12.24      32.39        0.03     0.02   0.841
  sub_90590                 38.50       0.00       0.91       1.51      20.58      11.79      32.37        0.04     0.03   0.841
  sub_90591                 38.50       0.00       0.96       1.03      24.16       8.02      32.18        0.03     0.02   0.836
  sub_90592                 38.50       0.00       0.96       1.00      24.39       7.78      32.17        0.03     0.02   0.835
  sub_90593                 38.50       0.00       0.93       1.35      21.77      10.53      32.31        0.03     0.02   0.839
  sub_90594                 38.50       0.00       0.90       1.67      19.44      12.99      32.43        0.04     0.03   0.842
  sub_90595                 38.50       0.00       0.90       1.68      19.32      13.12      32.44        0.03     0.02   0.843
  sub_90596                 38.50       0.00       0.97       0.95      24.71       7.44      32.15        0.03     0.02   0.835
  sub_90597                 38.50       0.00       0.85       2.24      15.21      17.45      32.66        0.02     0.01   0.848
  sub_90598                 38.50       0.00       0.85       2.22      15.34      17.32      32.66        0.02     0.01   0.848
  sub_90599                 38.50       0.00       0.90       1.63      19.69      12.72      32.42        0.02     0.01   0.842
  sub_90600                 38.50       0.00       0.92       1.48      20.79      11.57      32.36        0.02     0.01   0.841
  sub_90601                 38.50       0.00       0.83       2.48      13.45      19.30      32.76        0.03     0.02   0.851
  sub_90602                 38.50       0.00       0.88       1.84      18.15      14.35      32.50        0.03     0.02   0.844
  sub_90603                 38.50       0.00       0.84       2.34      14.48      18.23      32.70        0.03     0.02   0.849
  sub_90604                 38.50       0.00       0.91       1.56      20.21      12.18      32.39        0.03     0.02   0.841
  sub_90605                 38.50       0.00       0.91       1.54      20.39      11.99      32.38        0.05     0.03   0.841
  sub_90606                 38.50       0.00       0.90       1.73      18.99      13.47      32.46        0.03     0.02   0.843
  sub_90607                 38.50       0.00       0.89       1.80      18.49      13.99      32.48        0.02     0.01   0.844
  sub_90608                 38.50       0.00       0.86       2.15      15.88      16.74      32.63        0.03     0.02   0.847
  sub_90609                 38.50       0.00       0.82       2.52      13.11      19.67      32.78        0.02     0.01   0.851
  sub_90610                 38.50       0.00       0.83       2.45      13.68      19.07      32.75        0.02     0.01   0.851
  sub_90611                 38.50       0.00       0.85       2.19      15.59      17.05      32.64        0.02     0.01   0.848
  sub_90612                 38.50       0.00       0.83       2.47      13.50      19.25      32.75        0.03     0.02   0.851
  sub_90613                 38.50       0.00       0.81       2.63      12.30      20.52      32.82        0.04     0.03   0.852
  sub_90615                 38.50       0.00       0.85       2.24      15.19      17.47      32.66        0.05     0.03   0.848
  sub_90616                 38.50       0.00       0.95       1.15      23.28       8.94      32.23        0.05     0.03   0.837
  sub_90617                 38.50       0.00       0.92       1.49      20.78      11.58      32.36        0.04     0.03   0.841
  sub_90618                 38.50       0.00       0.96       0.96      24.69       7.46      32.15        0.06     0.04   0.835
  sub_90619                 38.50       0.00       1.04       0.15      30.63       1.20      31.83        0.02     0.01   0.827
  sub_90620                 38.50       0.00       0.96       1.01      24.32       7.85      32.17        0.02     0.01   0.836
  sub_90621                 38.50       0.00       0.86       2.13      16.03      16.59      32.62        0.07     0.04   0.847
  sub_90623                 38.50       0.00       0.89       1.82      18.30      14.19      32.49        0.06     0.04   0.844
  sub_90624                 38.50       0.00       0.89       1.76      18.77      13.70      32.47        0.01     0.01   0.843
  sub_90625                 38.50       0.00       0.92       1.50      20.68      11.68      32.37        0.03     0.02   0.841
  sub_90626                 38.50       0.00       0.93       1.34      21.89      10.41      32.30        0.02     0.02   0.839
  sub_90627                 38.50       0.00       0.84       2.37      14.26      18.46      32.71        0.04     0.03   0.850
  sub_90628                 38.50       0.00       0.88       1.94      17.42      15.12      32.54        0.07     0.04   0.845
  sub_90629                 38.50       0.00       0.85       2.25      15.12      17.55      32.67        0.05     0.03   0.849
  sub_90630                 38.50       0.00       0.97       0.95      24.75       7.40      32.15        0.03     0.02   0.835
  sub_90631                 38.50       0.00       0.92       1.48      20.79      11.58      32.36        0.03     0.02   0.841
  sub_90632                 38.50       0.00       0.91       1.54      20.39      11.99      32.38        0.03     0.02   0.841
  sub_90633                 38.50       0.00       0.97       0.94      24.78       7.36      32.14        0.03     0.02   0.835
  sub_90634                 38.50       0.00       0.92       1.43      21.18      11.16      32.34        0.02     0.01   0.840
  sub_90635                 38.50       0.00       0.86       2.10      16.26      16.34      32.61        0.03     0.02   0.847
  sub_90636                 38.50       0.00       0.91       1.59      20.03      12.38      32.40        0.03     0.02   0.842
  sub_90637                 38.50       0.00       0.92       1.47      20.88      11.47      32.36        0.03     0.02   0.840
  sub_90638                 38.50       0.00       0.97       0.86      25.41       6.70      32.11        0.05     0.03   0.834
  sub_90639                 38.50       0.00       0.85       2.24      15.17      17.50      32.66        0.04     0.02   0.848
  sub_90640                 38.50       0.00       0.95       1.13      23.43       8.78      32.22        0.04     0.03   0.837
  sub_90641                 38.50       0.00       0.93       1.39      21.51      10.81      32.32        0.04     0.03   0.840
  sub_90642                 38.50       0.00       0.89       1.75      18.82      13.64      32.47        0.03     0.02   0.843
  sub_90643                 38.50       0.00       0.95       1.12      23.47       8.74      32.22        0.06     0.04   0.837
  sub_90644                 38.50       0.00       0.96       0.97      24.59       7.56      32.15        0.03     0.02   0.835
  sub_90645                 38.50       0.00       0.93       1.37      21.60      10.72      32.32        0.02     0.01   0.839
  sub_90646                 38.50       0.00       0.82       2.58      12.71      20.09      32.80        0.03     0.02   0.852
  sub_90647                 38.50       0.00       0.73       3.54       5.55      27.63      33.19        0.03     0.02   0.862
  sub_90648                 38.50       0.00       0.97       0.93      24.86       7.28      32.14        0.02     0.01   0.835
  sub_90649                 38.50       0.00       0.93       1.38      21.59      10.73      32.32        0.03     0.02   0.839
  sub_90650                 38.50       0.00       0.93       1.35      21.75      10.56      32.31        0.07     0.04   0.839
  sub_90651                 38.50       0.00       0.95       1.12      23.52       8.69      32.21        0.03     0.02   0.837
  sub_90652                 38.50       0.00       0.92       1.41      21.32      11.01      32.33        0.02     0.01   0.840
  sub_90653                 38.50       0.00       0.90       1.72      19.06      13.39      32.45        0.02     0.01   0.843
  sub_90654                 38.50       0.00       0.87       1.97      17.21      15.35      32.55        0.01     0.00   0.846
  sub_90655                 38.50       0.00       0.94       1.28      22.33       9.95      32.28        0.03     0.02   0.838
  sub_90656                 38.50       0.00       0.85       2.27      15.00      17.67      32.67        0.04     0.02   0.849
  sub_90657                 38.50       0.00       0.84       2.38      14.15      18.57      32.72        0.04     0.02   0.850
  sub_90658                 38.50       0.00       0.93       1.36      21.71      10.60      32.31        0.04     0.02   0.839
  sub_90659                 38.50       0.00       0.77       3.11       8.76      24.25      33.01        0.02     0.01   0.857
  sub_90662                 38.50       0.00       0.91       1.59      20.00      12.40      32.40        0.01     0.01   0.842
  sub_90663                 38.50       0.00       0.85       2.17      15.70      16.94      32.64        0.08     0.05   0.848
  sub_90664                 38.50       0.00       0.66       4.30       0.00      33.49      33.49        0.01     0.00   0.870
  sub_90665                 38.50       0.00       0.87       2.01      16.92      15.65      32.57        0.03     0.02   0.846
  sub_90669                 38.50       0.00       0.90       1.63      19.75      12.67      32.42        0.01     0.01   0.842
  sub_90670                 38.50       0.00       0.94       1.19      22.97       9.27      32.24        0.02     0.01   0.837
  sub_90671                 38.50       0.00       0.93       1.31      22.10      10.19      32.29        0.01     0.00   0.839
  sub_90672                 38.50       0.00       0.89       1.74      18.92      13.54      32.46        0.03     0.02   0.843
  sub_90673                 38.50       0.00       0.85       2.21      15.39      17.26      32.65        0.03     0.02   0.848
  sub_90674                 38.50       0.00       0.99       0.64      27.02       5.00      32.02        0.04     0.03   0.832
  sub_90675                 38.50       0.00       0.96       0.98      24.54       7.62      32.16        0.05     0.03   0.835
  sub_90676                 38.50       0.00       0.92       1.44      21.09      11.26      32.34        0.04     0.02   0.840
  sub_90677                 38.50       0.00       0.86       2.11      16.16      16.45      32.61        0.02     0.01   0.847
  sub_90678                 38.50       0.00       0.88       1.89      17.79      14.73      32.52        0.02     0.02   0.845
  sub_90679                 38.50       0.00       0.86       2.08      16.40      16.20      32.60        0.05     0.03   0.847
  sub_90680                 38.50       0.00       0.94       1.19      22.94       9.30      32.24        0.05     0.03   0.837
  sub_90681                 38.50       0.00       0.86       2.11      16.14      16.47      32.61        0.02     0.01   0.847
  sub_90682                 38.50       0.00       0.88       1.90      17.72      14.80      32.53        0.03     0.02   0.845
  sub_90683                 38.50       0.00       0.77       3.14       8.57      24.45      33.02        0.02     0.01   0.858
  sub_90684                 38.50       0.00       0.99       0.70      26.59       5.45      32.05        0.01     0.01   0.832
  sub_90685                 38.50       0.00       1.01       0.51      27.98       3.99      31.97        0.01     0.01   0.830
  sub_90686                 38.50       0.00       0.88       1.89      17.79      14.73      32.52        0.02     0.01   0.845
  sub_90688                 38.50       0.00       0.92       1.43      21.18      11.16      32.34        0.02     0.01   0.840
  sub_90689                 38.50       0.00       0.84       2.29      14.82      17.86      32.68        0.01     0.01   0.849
  sub_90690                 38.50       0.00       0.89       1.80      18.48      14.00      32.49        0.02     0.01   0.844
  sub_90691                 38.50       0.00       0.91       1.54      20.35      12.03      32.38        0.02     0.01   0.841
  sub_90692                 38.50       0.00       0.93       1.34      21.88      10.42      32.30        0.01     0.01   0.839
  sub_90693                 38.50       0.00       0.82       2.53      13.08      19.70      32.78        0.01     0.01   0.851
  sub_90694                 38.50       0.00       0.74       3.46       6.15      27.00      33.15        0.01     0.01   0.861
  sub_90695                 38.50       0.00       0.88       1.93      17.47      15.07      32.54        0.01     0.01   0.845
  sub_90696                 38.50       0.00       0.86       2.15      15.88      16.74      32.63        0.01     0.01   0.847
  sub_90697                 38.50       0.00       0.85       2.21      15.43      17.22      32.65        0.01     0.01   0.848
  sub_90698                 38.50       0.00       0.83       2.49      13.32      19.44      32.76        0.01     0.01   0.851
  sub_90699                 38.50       0.00       0.78       2.96       9.86      23.09      32.95        0.01     0.01   0.856
  sub_90700                 38.50       0.00       0.98       0.82      25.72       6.38      32.09        0.01     0.00   0.834
  sub_90701                 38.50       0.00       0.98       0.76      26.16       5.91      32.07        0.01     0.00   0.833
  sub_90702                 38.50       0.00       0.97       0.86      25.41       6.70      32.11        0.00     0.00   0.834
  sub_90703                 38.50       0.00       0.85       2.21      15.45      17.20      32.65        0.02     0.02   0.848
  sub_90704                 38.50       0.00       0.86       2.12      16.07      16.55      32.62        0.03     0.02   0.847
  sub_90705                 38.50       0.00       0.84       2.30      14.79      17.89      32.68        0.04     0.03   0.849
  sub_90706                 38.50       0.00       0.91       1.57      20.14      12.25      32.40        0.01     0.01   0.841
  sub_90707                 38.50       0.00       0.96       1.05      24.02       8.17      32.19        0.01     0.01   0.836
  sub_90708                 38.50       0.00       0.82       2.55      12.89      19.90      32.79        0.05     0.03   0.852
  sub_90709                 38.50       0.00       0.88       1.89      17.79      14.73      32.52        0.03     0.02   0.845
  sub_90710                 38.50       0.00       0.83       2.47      13.53      19.23      32.75        0.05     0.03   0.851
  sub_90724                 38.50       0.00       0.82       2.58      12.71      20.09      32.80        0.02     0.01   0.852
  sub_90725                 38.50       0.00       0.66       4.30       0.00      33.49      33.49        0.01     0.00   0.870
  sub_90726                 38.50       0.00       0.66       4.30       0.00      33.49      33.49        0.00     0.00   0.870
  sub_90727                 38.50       0.00       0.66       4.30       0.00      33.49      33.49        0.01     0.00   0.870
  sub_90728                 38.50       0.00       0.66       4.30       0.00      33.49      33.49        0.02     0.01   0.870
  sub_90729                 38.50       0.00       0.66       4.30       0.00      33.49      33.49        0.01     0.00   0.870
  sub_90730                 38.50       0.00       0.66       4.30       0.00      33.49      33.49        0.02     0.01   0.870
  sub_90731                 38.50       0.00       0.66       4.30       0.00      33.49      33.49        0.02     0.01   0.870
  sub_90732                 38.50       0.00       0.66       4.30       0.00      33.49      33.49        0.00     0.00   0.870
  sub_90733                 38.50       0.00       0.94       1.26      22.42       9.85      32.27        0.02     0.01   0.838
  
  
  ******************
  Node Depth Summary
  ******************
  
  ---------------------------------------------------------------------------------
                                 Average  Maximum  Maximum  Time of Max    Reported
                                   Depth    Depth      HGL   Occurrence   Max Depth
  Node                 Type       Meters   Meters   Meters  days hr:min      Meters
  ---------------------------------------------------------------------------------
  j_9006F              JUNCTION     0.04     2.20     1.84     0  21:08        1.95
  j_90334              JUNCTION     0.03     1.79     1.58     0  21:07        1.79
  j_90335              JUNCTION     0.04     2.13     1.72     0  21:09        2.08
  j_90336              JUNCTION     0.03     2.00     1.83     0  21:08        1.91
  j_90363              JUNCTION     0.08     1.95     1.60     0  21:07        1.95
  j_90364              JUNCTION     0.07     1.94     1.59     0  21:08        1.94
  j_90365              JUNCTION     0.07     1.95     1.60     0  21:07        1.94
  j_90366              JUNCTION     0.03     1.90     1.59     0  21:08        1.85
  j_90367              JUNCTION     0.05     2.05     1.56     0  21:08        2.03
  j_90368              JUNCTION     0.03     2.14     1.85     0  21:08        1.83
  j_90369              JUNCTION     0.03     2.02     1.72     0  21:09        1.96
  j_90370              JUNCTION     0.06     2.20     1.69     0  21:09        2.15
  j_90371              JUNCTION     0.07     2.20     1.64     0  21:09        2.08
  j_90372              JUNCTION     0.02     1.93     1.68     0  21:09        1.51
  j_90373              JUNCTION     0.04     2.13     1.66     0  21:09        1.73
  j_90374              JUNCTION     0.02     2.20     1.92     0  21:09        1.25
  j_90375              JUNCTION     0.03     1.94     1.60     0  21:09        1.31
  j_90376              JUNCTION     0.01     1.15     1.00     0  21:09        0.73
  j_90377              JUNCTION     0.01     1.45     1.28     0  21:09        0.81
  j_90378              JUNCTION     0.03     2.05     1.65     0  21:08        1.70
  j_90379              JUNCTION     0.02     1.85     1.60     0  21:08        1.56
  j_90380              JUNCTION     0.03     1.90     1.57     0  21:08        1.73
  j_90381              JUNCTION     0.05     2.05     1.60     0  21:09        1.84
  j_90382              JUNCTION     0.08     2.50     1.58     0  21:09        2.30
  j_90383              JUNCTION     0.08     2.39     1.57     0  21:09        2.28
  j_90384              JUNCTION     0.07     2.09     1.63     0  21:09        1.93
  j_90385              JUNCTION     0.03     2.00     1.63     0  21:09        1.84
  j_90386              JUNCTION     0.02     1.80     1.57     0  21:08        1.71
  j_90387              JUNCTION     0.02     1.77     1.57     0  21:08        1.71
  j_90388              JUNCTION     0.07     1.90     1.51     0  21:09        1.90
  j_90389              JUNCTION     0.08     2.20     1.59     0  21:09        2.14
  j_90390              JUNCTION     0.06     2.15     1.58     0  21:09        2.09
  j_90391              JUNCTION     0.05     1.97     1.73     0  21:08        1.81
  j_90392              JUNCTION     0.06     1.96     1.71     0  21:09        1.85
  j_90393              JUNCTION     0.03     2.07     1.88     0  21:08        1.87
  j_90394              JUNCTION     0.03     1.88     1.78     0  21:09        1.88
  j_90395              JUNCTION     0.03     1.90     1.82     0  21:09        1.89
  j_90396              JUNCTION     0.02     1.87     1.85     0  21:09        1.87
  j_90397              JUNCTION     0.08     2.33     1.56     0  21:09        2.27
  j_90398              JUNCTION     0.05     2.25     1.63     0  21:08        2.23
  j_90399              JUNCTION     0.03     1.95     1.64     0  21:08        1.93
  j_90400              JUNCTION     0.02     1.90     1.64     0  21:08        1.88
  j_90401              JUNCTION     0.03     1.92     1.61     0  21:08        1.92
  j_90402              JUNCTION     0.03     2.01     1.65     0  21:08        1.98
  j_90403              JUNCTION     0.02     1.90     1.65     0  21:08        1.88
  j_90404              JUNCTION     0.03     1.96     1.66     0  21:08        1.94
  j_90405              JUNCTION     0.04     2.20     1.64     0  21:09        2.19
  j_90406              JUNCTION     0.04     2.15     1.65     0  21:08        2.14
  j_90407              JUNCTION     0.03     2.05     1.64     0  21:08        2.05
  j_90408              JUNCTION     0.03     1.97     1.65     0  21:08        1.97
  j_90427              JUNCTION     0.05     2.05     1.62     0  21:06        1.86
  j_90428              JUNCTION     0.04     1.95     1.58     0  21:06        1.64
  j_90430              JUNCTION     0.02     0.38    -1.19     0  21:09        0.34
  j_90433              JUNCTION     0.03     2.14     1.77     0  21:09        0.85
  j_90434              JUNCTION     0.07     2.20     1.77     0  21:09        0.91
  j_90435              JUNCTION     0.02     2.15     1.78     0  21:09        0.65
  j_90436              JUNCTION     0.03     1.67     1.21     0  21:09        0.67
  j_90437              JUNCTION     0.09     3.15     1.79     0  21:09        1.39
  j_90438              JUNCTION     0.11     2.88     1.53     0  21:09        1.65
  j_90439              JUNCTION     0.02     1.77     1.56     0  21:09        0.86
  j_90440              JUNCTION     0.02     1.78     1.62     0  21:07        1.16
  j_90441              JUNCTION     0.01     1.78     1.65     0  21:09        0.78
  j_90442              JUNCTION     0.09     2.30     1.66     0  21:07        1.83
  j_90443              JUNCTION     0.12     2.52     1.22     0  21:09        1.86
  j_90444              JUNCTION     0.08     2.30     1.19     0  21:09        2.03
  j_90445              JUNCTION     0.03     1.66     1.23     0  21:09        1.36
  j_90446              JUNCTION     0.02     1.95     1.59     0  21:08        1.30
  j_90447              JUNCTION     0.02     1.83     1.58     0  21:09        1.20
  j_90448              JUNCTION     0.02     1.88     1.61     0  21:08        1.40
  j_90449              JUNCTION     0.04     1.94     1.46     0  21:09        1.60
  j_90450              JUNCTION     0.03     1.91     1.44     0  21:09        1.59
  j_90451              JUNCTION     0.08     2.41     1.39     0  21:09        2.13
  j_90452              JUNCTION     0.03     2.01     1.59     0  21:09        1.71
  j_90453              JUNCTION     0.08     2.51     1.55     0  21:09        2.24
  j_90454              JUNCTION     0.03     2.15     1.68     0  21:08        2.05
  j_90455              JUNCTION     0.05     2.19     1.65     0  21:08        2.05
  j_90456              JUNCTION     0.05     2.28     1.62     0  21:08        2.05
  j_90457              JUNCTION     0.06     2.28     1.52     0  21:09        1.92
  j_90459              JUNCTION     0.07     2.64     1.59     0  21:07        1.83
  j_90460              JUNCTION     0.05     2.52     1.56     0  21:07        1.85
  j_90461              JUNCTION     0.10     2.62     1.54     0  21:07        1.97
  j_90462              JUNCTION     0.08     2.48     1.50     0  21:09        2.09
  j_90463              JUNCTION     0.05     2.37     1.64     0  21:09        2.19
  j_90464              JUNCTION     0.05     2.30     1.67     0  21:09        2.18
  j_90465              JUNCTION     0.04     2.20     1.66     0  21:07        2.13
  j_90466              JUNCTION     0.03     2.15     1.71     0  21:08        2.05
  j_90467              JUNCTION     0.04     2.07     1.65     0  21:07        2.07
  j_90468              JUNCTION     0.05     2.23     1.71     0  21:08        2.16
  j_90469              JUNCTION     0.05     2.20     1.64     0  21:08        2.19
  j_90470              JUNCTION     0.06     2.28     1.61     0  21:07        2.26
  j_90471              JUNCTION     0.06     2.31     1.61     0  21:07        2.27
  j_90477              JUNCTION     0.04     1.92     1.61     0  21:06        1.92
  j_90478              JUNCTION     0.05     2.00     1.59     0  21:06        2.00
  j_90479              JUNCTION     0.04     1.91     1.59     0  21:06        1.91
  j_90480              JUNCTION     0.04     1.87     1.62     0  21:06        1.86
  j_90481              JUNCTION     0.05     2.02     1.62     0  21:06        2.00
  j_90482              JUNCTION     0.06     2.07     1.62     0  21:07        2.05
  j_90483              JUNCTION     0.04     1.87     1.59     0  21:06        1.87
  j_90484              JUNCTION     0.03     1.80     1.60     0  21:06        1.79
  j_90485              JUNCTION     0.05     1.92     1.59     0  21:08        1.89
  j_90486              JUNCTION     0.08     2.05     1.59     0  21:08        1.98
  j_90487              JUNCTION     0.06     2.12     1.60     0  21:07        2.04
  j_90488              JUNCTION     0.09     2.22     1.62     0  21:07        2.06
  j_90489              JUNCTION     0.03     1.82     1.59     0  21:07        1.75
  j_90490              JUNCTION     0.04     1.90     1.59     0  21:06        1.87
  j_90491              JUNCTION     0.07     2.15     1.61     0  21:07        2.13
  j_90492              JUNCTION     0.08     2.24     1.62     0  21:06        2.19
  j_90493              JUNCTION     0.04     1.90     1.58     0  21:06        1.87
  j_90494              JUNCTION     0.09     2.32     1.58     0  21:08        2.25
  j_90495              JUNCTION     0.09     2.30     1.59     0  21:08        2.27
  j_90496              JUNCTION     0.05     1.89     1.57     0  21:06        1.89
  j_90497              JUNCTION     0.03     1.77     1.59     0  21:07        1.74
  j_90498              JUNCTION     0.05     2.10     1.62     0  21:07        2.00
  j_90499              JUNCTION     0.06     2.08     1.61     0  21:07        2.03
  j_90500              JUNCTION     0.05     1.99     1.61     0  21:07        1.95
  j_90501              JUNCTION     0.04     1.85     1.58     0  21:07        1.84
  j_90502              JUNCTION     0.03     1.85     1.62     0  21:07        1.80
  j_90503              JUNCTION     0.03     1.82     1.59     0  21:07        1.80
  j_90504              JUNCTION     0.07     1.84     1.56     0  21:07        1.84
  j_90505              JUNCTION     0.06     2.11     1.61     0  21:08        2.08
  j_90506              JUNCTION     0.07     2.13     1.62     0  21:07        2.09
  j_90507              JUNCTION     0.04     2.00     1.63     0  21:07        1.95
  j_90508              JUNCTION     0.05     2.02     1.57     0  21:07        2.02
  j_90509              JUNCTION     0.03     1.88     1.63     0  21:07        1.81
  j_90510              JUNCTION     0.04     1.92     1.61     0  21:07        1.90
  j_90511              JUNCTION     0.11     2.18     1.59     0  21:07        2.18
  j_90512              JUNCTION     0.08     2.16     1.62     0  21:07        2.13
  j_90513              JUNCTION     0.04     1.88     1.62     0  21:06        1.86
  j_90514              JUNCTION     0.04     1.92     1.60     0  21:07        1.90
  j_90515              JUNCTION     0.07     2.39     1.98     0  21:07        1.97
  j_90516              JUNCTION     0.09     2.13     1.69     0  21:07        1.90
  j_90517              JUNCTION     0.07     2.51     1.59     0  21:09        2.24
  j_90518              JUNCTION     0.08     2.52     1.64     0  21:07        2.30
  j_90519              JUNCTION     0.07     2.43     1.60     0  21:07        2.36
  j_90520              JUNCTION     0.04     1.96     1.61     0  21:07        1.90
  j_90521              JUNCTION     0.03     1.82     1.58     0  21:07        1.79
  j_90522              JUNCTION     0.05     1.82     1.55     0  21:07        1.82
  j_90523              JUNCTION     0.03     1.80     1.60     0  21:07        1.76
  j_90524              JUNCTION     0.06     2.04     1.59     0  21:07        2.04
  j_90525              JUNCTION     0.05     1.93     1.58     0  21:07        1.93
  j_90526              JUNCTION     0.04     1.85     1.59     0  21:07        1.85
  j_90527              JUNCTION     0.04     1.78     1.60     0  21:06        1.78
  j_90549              JUNCTION     0.02     1.26     0.85     0  21:09        0.74
  j_90550              JUNCTION     0.14     1.37     0.14     0  21:10        1.37
  j_90551              JUNCTION     0.01     0.10     0.15     0  21:06        0.10
  j_90553              JUNCTION     0.07     2.00     1.62     0  21:06        2.00
  j_90554              JUNCTION     0.05     1.97     1.63     0  21:06        1.97
  j_90555              JUNCTION     0.04     1.95     1.71     0  21:06        1.87
  j_90556              JUNCTION     0.07     2.00     1.63     0  21:06        2.00
  j_90557              JUNCTION     0.07     2.03     1.65     0  21:07        2.00
  j_90558              JUNCTION     0.10     2.33     1.62     0  21:07        2.31
  j_90559              JUNCTION     0.07     2.20     1.62     0  21:07        2.19
  j_90560              JUNCTION     0.07     2.17     1.61     0  21:07        2.17
  j_90561              JUNCTION     0.05     2.00     1.62     0  21:06        1.97
  j_90562              JUNCTION     0.07     2.04     1.59     0  21:07        2.04
  j_90563              JUNCTION     0.09     2.33     1.63     0  21:07        2.24
  j_90564              JUNCTION     0.11     2.45     1.64     0  21:07        2.32
  j_90565              JUNCTION     0.04     1.95     1.61     0  21:06        1.86
  j_90566              JUNCTION     0.03     1.82     1.62     0  21:06        1.73
  j_90567              JUNCTION     0.01     1.39     1.42     0  21:09        0.38
  j_90568              JUNCTION     0.12     2.10     0.99     0  21:09        1.56
  j_90569              JUNCTION     0.07     1.95     1.63     0  21:07        1.84
  j_90570              JUNCTION     0.02     1.70     1.62     0  21:07        1.61
  j_90571              JUNCTION     0.05     2.04     1.61     0  21:07        1.93
  j_90572              JUNCTION     0.12     2.50     1.64     0  21:07        2.31
  j_90573              JUNCTION     0.04     1.93     1.59     0  21:06        1.86
  j_90574              JUNCTION     0.11     2.35     1.55     0  21:07        2.21
  j_90575              JUNCTION     0.15     2.56     1.65     0  21:07        2.18
  j_90576              JUNCTION     0.11     2.55     1.63     0  21:07        1.96
  j_90577              JUNCTION     0.12     2.47     1.49     0  21:08        1.83
  j_90578              JUNCTION     0.11     2.25     1.30     0  21:08        1.82
  j_90579              JUNCTION     0.09     2.65     1.77     0  21:07        1.78
  j_90580              JUNCTION     0.03     1.85     1.72     0  21:07        1.64
  j_90581              JUNCTION     0.03     1.82     1.58     0  21:07        1.75
  j_90582              JUNCTION     0.03     1.86     1.62     0  21:07        1.74
  j_90583              JUNCTION     0.04     1.90     1.59     0  21:07        1.78
  j_90584              JUNCTION     0.04     1.95     1.60     0  21:08        1.85
  j_90585              JUNCTION     0.11     2.42     1.59     0  21:08        2.22
  j_90586              JUNCTION     0.12     2.42     1.60     0  21:08        2.30
  j_90587              JUNCTION     0.11     2.37     1.58     0  21:08        2.31
  j_90588              JUNCTION     0.04     1.93     1.57     0  21:08        1.90
  j_90589              JUNCTION     0.04     1.82     1.54     0  21:07        1.82
  j_90590              JUNCTION     0.03     1.83     1.58     0  21:07        1.81
  j_90591              JUNCTION     0.08     2.22     1.61     0  21:08        2.21
  j_90592              JUNCTION     0.10     2.28     1.61     0  21:08        2.26
  j_90593              JUNCTION     0.11     2.40     1.61     0  21:08        2.35
  j_90594              JUNCTION     0.09     2.31     1.61     0  21:08        2.27
  j_90595              JUNCTION     0.05     1.96     1.62     0  21:08        1.92
  j_90596              JUNCTION     0.04     1.93     1.61     0  21:08        1.91
  j_90597              JUNCTION     0.04     1.87     1.59     0  21:07        1.87
  j_90598              JUNCTION     0.04     1.87     1.62     0  21:07        1.84
  j_90599              JUNCTION     0.05     1.88     1.59     0  21:06        1.88
  j_90600              JUNCTION     0.04     1.95     1.73     0  21:07        1.82
  j_90601              JUNCTION     0.03     1.96     1.79     0  21:07        1.77
  j_90602              JUNCTION     0.04     1.86     1.59     0  21:07        1.86
  j_90603              JUNCTION     0.04     1.89     1.60     0  21:07        1.88
  j_90604              JUNCTION     0.05     1.94     1.58     0  21:07        1.94
  j_90605              JUNCTION     0.07     2.06     1.60     0  21:08        2.04
  j_90606              JUNCTION     0.08     2.07     1.64     0  21:07        2.03
  j_90607              JUNCTION     0.05     2.00     1.62     0  21:07        1.98
  j_90608              JUNCTION     0.05     1.94     1.60     0  21:07        1.94
  j_90609              JUNCTION     0.03     1.73     1.56     0  21:07        1.73
  j_90610              JUNCTION     0.04     1.82     1.60     0  21:07        1.81
  j_90611              JUNCTION     0.04     1.91     1.64     0  21:07        1.87
  j_90612              JUNCTION     0.04     1.83     1.62     0  21:07        1.81
  j_90613              JUNCTION     0.03     1.70     1.60     0  21:07        1.70
  j_90615              JUNCTION     0.01     2.05     1.76     0  21:09        0.63
  j_90616              JUNCTION     0.02     2.40     2.08     0  21:08        0.91
  j_90617              JUNCTION     0.02     2.30     2.07     0  21:08        0.98
  j_90618              JUNCTION     0.03     2.25     1.88     0  21:07        1.20
  j_90619              JUNCTION     0.12     2.35     1.35     0  21:08        1.76
  j_90620              JUNCTION     0.17     2.45     1.40     0  21:08        1.88
  j_90621              JUNCTION     0.12     2.25     1.27     0  21:08        2.00
  j_90623              JUNCTION     0.11     2.29     1.39     0  21:09        2.11
  j_90624              JUNCTION     0.07     2.19     1.40     0  21:09        2.00
  j_90625              JUNCTION     0.06     2.28     1.58     0  21:09        2.14
  j_90626              JUNCTION     0.09     2.34     1.52     0  21:09        2.18
  j_90627              JUNCTION     0.11     2.37     1.49     0  21:09        2.21
  j_90628              JUNCTION     0.04     2.00     1.59     0  21:09        1.92
  j_90629              JUNCTION     0.04     1.96     1.61     0  21:07        1.90
  j_90630              JUNCTION     0.02     1.80     1.61     0  21:08        1.09
  j_90631              JUNCTION     0.05     2.05     1.63     0  21:07        2.00
  j_90632              JUNCTION     0.05     2.07     1.62     0  21:07        2.00
  j_90633              JUNCTION     0.05     2.09     1.61     0  21:09        1.99
  j_90634              JUNCTION     0.15     2.44     1.56     0  21:09        2.33
  j_90635              JUNCTION     0.07     2.28     1.58     0  21:09        2.16
  j_90636              JUNCTION     0.08     2.26     1.69     0  21:09        2.12
  j_90637              JUNCTION     0.08     2.35     1.64     0  21:07        2.21
  j_90638              JUNCTION     0.06     2.08     1.60     0  21:07        2.07
  j_90639              JUNCTION     0.05     2.04     1.64     0  21:07        2.01
  j_90640              JUNCTION     0.03     1.92     1.63     0  21:07        1.89
  j_90641              JUNCTION     0.08     2.60     1.76     0  21:08        1.75
  j_90642              JUNCTION     0.06     2.47     1.74     0  21:08        1.65
  j_90643              JUNCTION     0.06     2.47     1.75     0  21:08        1.64
  j_90644              JUNCTION     0.02     1.90     1.75     0  21:08        1.07
  j_90645              JUNCTION     0.02     1.80     1.87     0  21:08        1.60
  j_90646              JUNCTION     0.05     1.90     1.80     0  21:08        1.77
  j_90647              JUNCTION     0.02     1.70     1.73     0  21:08        1.65
  j_90648              JUNCTION     0.03     1.92     1.63     0  21:07        1.91
  j_90649              JUNCTION     0.03     1.83     1.62     0  21:07        1.83
  j_90650              JUNCTION     0.05     1.98     1.60     0  21:09        1.98
  j_90651              JUNCTION     0.04     2.19     1.75     0  21:09        2.04
  j_90652              JUNCTION     0.04     2.22     1.80     0  21:07        2.04
  j_90653              JUNCTION     0.03     2.05     1.81     0  21:07        1.86
  j_90654              JUNCTION     0.08     2.19     1.59     0  21:07        2.16
  j_90655              JUNCTION     0.10     2.25     1.59     0  21:07        2.21
  j_90656              JUNCTION     0.10     2.30     1.61     0  21:07        2.22
  j_90657              JUNCTION     0.01     1.57     1.80     0  21:07        1.07
  j_90658              JUNCTION     0.02     1.65     1.78     0  21:07        1.16
  j_90659              JUNCTION     0.02     1.81     1.83     0  21:07        1.20
  j_90662              JUNCTION     0.02     1.62     1.30     0  21:09        0.80
  j_90663              JUNCTION     0.05     2.05     1.62     0  21:07        2.05
  j_90664              JUNCTION     0.03     1.90     1.63     0  21:07        1.89
  j_90665              JUNCTION     0.11     2.37     1.40     0  21:08        1.81
  j_90669              JUNCTION     0.08     1.83     1.60     0  21:08        1.83
  j_90670              JUNCTION     0.10     1.87     1.62     0  21:08        1.85
  j_90671              JUNCTION     0.10     1.86     1.60     0  21:08        1.85
  j_90672              JUNCTION     0.06     2.10     1.64     0  21:08        2.05
  j_90673              JUNCTION     0.09     2.17     1.64     0  21:08        2.11
  j_90674              JUNCTION     0.09     2.27     1.67     0  21:07        2.17
  j_90675              JUNCTION     0.07     1.85     1.63     0  21:08        1.82
  j_90676              JUNCTION     0.09     1.83     1.59     0  21:08        1.83
  j_90677              JUNCTION     0.13     1.87     1.58     0  21:08        1.87
  j_90678              JUNCTION     0.03     1.67     1.57     0  21:08        1.67
  j_90679              JUNCTION     0.03     1.58     1.56     0  21:08        1.58
  j_90680              JUNCTION     0.06     1.92     1.62     0  21:08        1.90
  j_90681              JUNCTION     0.08     2.00     1.62     0  21:08        1.97
  j_90682              JUNCTION     0.02     1.60     1.57     0  21:08        1.60
  j_90683              JUNCTION     0.07     2.05     1.60     0  21:08        2.04
  j_90684              JUNCTION     0.05     1.95     1.59     0  21:08        1.95
  j_90685              JUNCTION     0.02     1.72     1.83     0  21:08        1.49
  j_90686              JUNCTION     0.05     2.04     1.64     0  21:08        1.99
  j_90688              JUNCTION     0.01     0.11     0.56     0  21:07        0.11
  j_90689              JUNCTION     0.02     0.57     0.27     0  21:15        0.57
  j_90690              JUNCTION     0.02     0.57     0.32     0  21:14        0.56
  j_90691              JUNCTION     0.01     0.35     0.45     0  21:14        0.33
  j_90692              JUNCTION     0.01     0.35     0.55     0  21:14        0.31
  j_90693              JUNCTION     0.01     0.53     0.56     0  21:15        0.53
  j_90694              JUNCTION     0.01     0.49     0.55     0  21:15        0.49
  j_90695              JUNCTION     0.01     0.09     0.59     0  21:10        0.09
  j_90696              JUNCTION     0.01     0.53     0.53     0  21:15        0.53
  j_90697              JUNCTION     0.01     0.57     0.50     0  21:15        0.56
  j_90698              JUNCTION     0.01     0.58     0.46     0  21:15        0.57
  j_90699              JUNCTION     0.02     1.51     1.33     0  21:09        0.58
  j_90700              JUNCTION     0.00     0.06     0.56     0  21:10        0.06
  j_90701              JUNCTION     0.00     0.06     0.56     0  21:10        0.06
  j_90702              JUNCTION     0.00     0.05     0.55     0  21:10        0.05
  j_90703              JUNCTION     0.06     2.08     1.60     0  21:07        2.07
  j_90704              JUNCTION     0.04     1.82     1.60     0  21:06        1.81
  j_90705              JUNCTION     0.04     1.84     1.58     0  21:06        1.84
  j_90706              JUNCTION     0.07     2.14     1.60     0  21:08        2.14
  j_90707              JUNCTION     0.05     1.98     1.60     0  21:07        1.97
  j_90708              JUNCTION     0.03     1.87     1.76     0  21:06        1.75
  j_90709              JUNCTION     0.04     1.76     1.56     0  21:06        1.76
  j_90710              JUNCTION     0.03     1.62     1.57     0  21:06        1.62
  j_90724              JUNCTION     0.10     1.88     1.62     0  21:08        1.86
  j_90725              JUNCTION     0.03     1.77     1.77     0  21:08        1.65
  j_90726              JUNCTION     0.02     1.72     1.77     0  21:08        1.61
  j_90727              JUNCTION     0.02     1.67     1.77     0  21:08        1.57
  j_90728              JUNCTION     0.02     1.71     1.77     0  21:08        1.64
  j_90729              JUNCTION     0.02     1.54     1.77     0  21:09        1.54
  j_90730              JUNCTION     0.03     1.88     1.80     0  21:07        1.74
  j_90731              JUNCTION     0.02     1.67     1.77     0  21:08        1.58
  j_90732              JUNCTION     0.02     1.62     1.77     0  21:08        1.53
  j_90733              JUNCTION     0.04     1.79     1.65     0  21:09        1.76
  j_91272              JUNCTION     0.01     1.66     1.83     0  21:08        1.37
  j_91273              JUNCTION     0.01     1.68     2.15     0  21:09        1.06
  j_91274              JUNCTION     0.01     1.65     1.88     0  21:09        1.31
  j_91275              JUNCTION     0.01     1.69     2.16     0  21:10        1.07
  j_91276              JUNCTION     0.01     1.59     1.87     0  21:10        1.26
  j_91277              JUNCTION     0.01     1.65     2.16     0  21:10        1.03
  j_91278              JUNCTION     0.01     1.55     1.90     0  21:10        1.19
  j_91279              JUNCTION     0.01     1.67     2.17     0  21:11        1.04
  j_91292              JUNCTION     0.01     2.06     2.05     0  21:09        0.98
  j_91293              JUNCTION     0.02     2.23     2.00     0  21:09        1.20
  j_91294              JUNCTION     0.00     1.67     1.98     0  21:10        0.66
  j_90552              OUTFALL      0.00     0.00    -1.29     0  00:00        0.00
  j_90431              OUTFALL      0.02     0.34    -1.27     0  21:10        0.34
  
  
  *******************
  Node Inflow Summary
  *******************
  
  -------------------------------------------------------------------------------------------------
                                  Maximum  Maximum                  Lateral       Total        Flow
                                  Lateral    Total  Time of Max      Inflow      Inflow     Balance
                                   Inflow   Inflow   Occurrence      Volume      Volume       Error
  Node                 Type           CMS      CMS  days hr:min    10^6 ltr    10^6 ltr     Percent
  -------------------------------------------------------------------------------------------------
  j_9006F              JUNCTION     0.008    0.104     0  21:08      0.0126       0.014       0.000
  j_90334              JUNCTION     0.024    0.039     0  21:07      0.0386      0.0387       0.000
  j_90335              JUNCTION     0.040    0.040     0  21:08       0.062       0.062       0.000
  j_90336              JUNCTION     0.006    0.120     0  21:09      0.0102      0.0567       0.000
  j_90363              JUNCTION     0.044    0.044     0  21:07      0.0694      0.0696       0.000
  j_90364              JUNCTION     0.011    0.083     0  21:07      0.0182       0.127      -0.121
  j_90365              JUNCTION     0.002    0.004     0  21:07     0.00301      0.0042       1.003
  j_90366              JUNCTION     0.015    0.015     0  21:06       0.023       0.023       0.000
  j_90367              JUNCTION     0.013    0.113     0  21:07      0.0213       0.182      -0.053
  j_90368              JUNCTION     0.000    0.108     0  21:09           0      0.0257       0.358
  j_90369              JUNCTION     0.033    0.033     0  21:06      0.0526      0.0526       0.000
  j_90370              JUNCTION     0.015    0.090     0  21:06      0.0235       0.138      -0.175
  j_90371              JUNCTION     0.020    0.191     0  21:08      0.0314       0.388       0.008
  j_90372              JUNCTION     0.008    0.019     0  21:07      0.0125      0.0125       0.000
  j_90373              JUNCTION     0.014    0.172     0  21:09       0.022       0.126      -0.077
  j_90374              JUNCTION     0.000    0.072     0  21:09           0      0.0159       0.000
  j_90375              JUNCTION     0.017    0.189     0  21:09      0.0273       0.122      -0.058
  j_90376              JUNCTION     0.003    0.092     0  21:09     0.00453      0.0367       0.000
  j_90377              JUNCTION     0.015    0.164     0  21:10      0.0228       0.123      -0.125
  j_90378              JUNCTION     0.016    0.095     0  21:08      0.0252      0.0644       0.000
  j_90379              JUNCTION     0.023    0.118     0  21:08      0.0371      0.0386      -0.545
  j_90380              JUNCTION     0.027    0.068     0  21:08      0.0423      0.0426       0.000
  j_90381              JUNCTION     0.016    0.059     0  21:08      0.0254      0.0683       0.705
  j_90382              JUNCTION     0.019    0.310     0  21:14      0.0304        0.88      -0.046
  j_90383              JUNCTION     0.017    0.263     0  21:14      0.0262       0.782      -0.066
  j_90384              JUNCTION     0.009    0.050     0  21:08      0.0144       0.074       0.358
  j_90385              JUNCTION     0.013    0.065     0  21:07      0.0209        0.06       0.208
  j_90386              JUNCTION     0.024    0.087     0  21:08      0.0375      0.0383      -0.510
  j_90387              JUNCTION     0.015    0.059     0  21:08      0.0243      0.0253       0.000
  j_90388              JUNCTION     0.009    0.046     0  21:10      0.0149      0.0419       0.688
  j_90389              JUNCTION     0.013    0.218     0  21:08      0.0198       0.529       0.000
  j_90390              JUNCTION     0.007    0.171     0  21:08      0.0108       0.375      -0.017
  j_90391              JUNCTION     0.008    0.082     0  21:10      0.0134       0.139       0.093
  j_90392              JUNCTION     0.018    0.084     0  21:09      0.0283       0.127       0.097
  j_90393              JUNCTION     0.029    0.113     0  21:09      0.0463       0.102      -0.088
  j_90394              JUNCTION     0.009    0.129     0  21:09      0.0148      0.0461       0.221
  j_90395              JUNCTION     0.012    0.141     0  21:09       0.018      0.0301      -0.209
  j_90396              JUNCTION     0.005    0.138     0  21:09     0.00731      0.0104      -1.290
  j_90397              JUNCTION     0.013    0.216     0  21:15      0.0206       0.683      -0.022
  j_90398              JUNCTION     0.015    0.135     0  21:09      0.0232       0.143      -0.113
  j_90399              JUNCTION     0.016    0.124     0  21:08      0.0246      0.0393       0.317
  j_90400              JUNCTION     0.010    0.325     0  21:08      0.0156      0.0546      -0.213
  j_90401              JUNCTION     0.016    0.273     0  21:08      0.0247      0.0722      -0.272
  j_90402              JUNCTION     0.016    0.130     0  21:08      0.0248      0.0466       0.000
  j_90403              JUNCTION     0.009    0.241     0  21:08      0.0146       0.048      -1.812
  j_90404              JUNCTION     0.015    0.133     0  21:08      0.0237      0.0471       0.228
  j_90405              JUNCTION     0.016    0.092     0  21:08      0.0254      0.0913      -0.013
  j_90406              JUNCTION     0.015    0.163     0  21:08      0.0235      0.0855      -0.218
  j_90407              JUNCTION     0.012    0.141     0  21:08      0.0183      0.0448      -1.955
  j_90408              JUNCTION     0.031    0.130     0  21:08      0.0488       0.062       0.496
  j_90427              JUNCTION     0.032    0.127     0  21:08      0.0509       0.137       0.000
  j_90428              JUNCTION     0.018    0.146     0  21:08       0.029       0.122      -0.165
  j_90430              JUNCTION     0.010    1.968     0  21:10      0.0158        3.89       0.004
  j_90433              JUNCTION     0.005    0.007     0  21:09     0.00783     0.00797       0.000
  j_90434              JUNCTION     0.012    0.106     0  21:15       0.018       0.118       0.337
  j_90435              JUNCTION     0.017    0.123     0  21:09      0.0275       0.145      -1.237
  j_90436              JUNCTION     0.010    0.158     0  21:15       0.016        0.21       0.000
  j_90437              JUNCTION     0.023    1.955     0  21:10      0.0357        3.88       0.037
  j_90438              JUNCTION     0.018    1.760     0  21:09      0.0282        3.48      -0.001
  j_90439              JUNCTION     0.010    0.204     0  21:08      0.0162       0.173       0.000
  j_90440              JUNCTION     0.031    0.177     0  21:08      0.0493       0.145       0.081
  j_90441              JUNCTION     0.014    0.020     0  21:07      0.0227      0.0228      -0.125
  j_90442              JUNCTION     0.032    0.458     0  21:08       0.052       0.802       0.190
  j_90443              JUNCTION     0.045    1.544     0  21:09      0.0724        3.27      -0.038
  j_90444              JUNCTION     0.018    0.492     0  21:10      0.0287         1.2      -0.021
  j_90445              JUNCTION     0.016    0.093     0  21:09      0.0251      0.0897       0.256
  j_90446              JUNCTION     0.016    0.109     0  21:09      0.0249      0.0649       0.070
[...]
  c_904801                    0.24      0.24      0.26      0.01         0.01
  c_904811                    0.24      0.24      0.27      0.01         0.01
  c_904821                    0.34      0.34      0.37      0.01         0.01
  c_904822                    0.33      0.33      0.37      0.01         0.01
  c_904831                    0.25      0.25      0.32      0.01         0.01
  c_904851                    0.22      0.22      0.27      0.01         0.01
  c_904861                    0.36      0.36      0.40      0.16         0.01
  c_904862                    0.26      0.26      0.34      0.03         0.03
  c_904871                    0.36      0.36      0.64      0.01         0.01
  c_904881                    0.64      0.64      0.77      0.05         0.04
  c_904882                    0.29      0.31      0.29      0.35         0.28
  c_904891                    0.22      0.22      0.24      0.01         0.01
  c_904901                    0.22      0.22      0.24      0.02         0.01
  c_904921                    0.72      0.72      0.76      0.23         0.22
  c_904922                    0.24      0.24      0.44      0.01         0.01
  c_904931                    0.25      0.25      0.28      0.01         0.01
  c_904951                    0.87      0.87      0.89      0.01         0.01
  c_904952                    0.99      0.99      1.00      0.27         0.16
  c_904961                    0.24      0.24      0.42      0.01         0.01
  c_904971                    0.21      0.21      0.25      0.01         0.01
  c_904981                    0.22      0.22      0.27      0.01         0.01
  c_904982                    0.24      0.24      0.31      0.01         0.02
  c_904991                    0.37      0.37      0.37      0.52         0.35
  c_905001                    0.29      0.29      0.37      0.01         0.01
  c_905011                    0.24      0.24      0.28      0.01         0.02
  c_905021                    0.23      0.23      0.24      0.01         0.01
  c_905031                    0.23      0.23      0.24      0.01         0.01
  c_905041                    0.22      0.22      0.23      0.01         0.01
  c_905042                    0.23      0.23      0.25      0.01         0.01
  c_905051                    0.63      0.63      0.80      0.01         0.01
  c_905061                    0.63      0.63      0.68      0.30         0.01
  c_905071                    0.32      0.32      0.68      0.01         0.01
  c_905072                    0.23      0.23      0.32      0.01         0.01
  c_905081                    0.40      0.40      0.59      0.01         0.01
  c_905091                    0.24      0.24      0.35      0.01         0.01
  c_905101                    0.23      0.23      0.28      0.01         0.01
  c_905111                    0.28      0.28      0.38      0.01         0.01
  c_905121                    0.77      0.77      0.81      0.01         0.01
  c_905131                    0.24      0.24      0.51      0.01         0.01
  c_905141                    0.24      0.24      0.28      0.02         0.01
  c_905151                    0.21      0.21      0.24      0.02         0.01
  c_905152                    0.23      0.24      0.27      0.04         0.03
  c_905161                    0.24      0.28      0.24      0.53         0.24
  c_905171                    0.39      0.39      0.54      0.10         0.11
  c_905172                    0.31      0.31      0.31      0.33         0.30
  c_905181                    0.22      0.22      0.26      0.02         0.02
  c_905182                    0.36      0.36      0.40      0.53         0.01
  c_905191                    0.31      0.31      0.35      0.01         0.01
  c_905192                    0.38      0.38      0.40      0.13         0.12
  c_905201                    0.22      0.22      0.22      0.12         0.10
  c_905211                    0.17      0.17      0.22      0.01         0.01
  c_905221                    0.17      0.17      0.20      0.01         0.01
  c_905231                    0.14      0.14      0.17      0.01         0.01
  c_905241                    0.59      0.59      0.78      0.01         0.01
  c_905251                    0.34      0.34      0.59      0.01         0.01
  c_905261                    0.27      0.27      0.34      0.01         0.01
  c_905271                    0.23      0.23      0.27      0.01         0.01
  c_905501                    0.12      0.12      0.12      0.12         0.11
  c_905521                    0.01      0.01      0.01      0.77         0.01
  c_905541                    0.26      0.26      0.33      0.01         0.01
  c_905551                    0.24      0.24      0.24      0.01         0.01
  c_905561                    0.32      0.32      0.33      0.01         0.01
  c_905571                    0.32      0.32      0.32      0.88         0.07
  c_905572                    0.29      0.29      0.33      0.01         0.01
  c_905581                    0.30      0.30      0.67      0.01         0.01
  c_905591                    0.36      0.36      0.72      0.01         0.01
  c_905601                    0.72      0.72      0.75      0.01         0.03
  c_905602                    0.26      0.26      0.72      0.01         0.01
  c_905611                    0.32      0.32      0.34      0.01         0.01
  c_905621                    0.32      0.32      0.38      0.01         0.01
  c_905622                    0.26      0.26      0.38      0.01         0.01
  c_905631                    0.36      0.36      0.45      0.13         0.12
  c_905632                    0.69      0.69      0.70      2.33         0.01
  c_905641                    0.31      0.31      0.38      0.01         0.01
  c_905651                    0.25      0.25      0.39      0.01         0.01
  c_905661                    0.23      0.23      0.24      0.01         0.01
  c_905681                    0.01      0.11      0.01      0.17         0.01
  c_905682                    0.01      0.01      0.01      0.01         0.01
  c_905691                    0.22      0.22      0.24      0.01         0.01
  c_905701                    0.16      0.16      0.22      0.01         0.01
  c_905711                    0.23      0.23      0.33      0.01         0.01
  c_905721                    0.52      0.52      0.57      0.23         0.21
  c_905722                    0.34      0.34      0.68      0.01         0.01
  c_905731                    0.25      0.25      0.25      0.17         0.16
  c_905732                    0.26      0.26      0.42      0.01         0.01
  c_905741                    1.00      1.00      1.05      0.14         0.14
  c_905751                    1.02      1.02      1.52      0.12         0.12
  c_905752                    0.68      0.68      0.74      0.23         0.21
  c_905761                    0.22      0.22      0.22      0.27         0.21
  c_905771                    0.21      0.22      0.21      0.22         0.20
  c_905781                    0.66      0.66      0.71      0.01         0.01
  c_905791                    0.38      0.38      0.66      0.01         0.01
  c_905811                    0.21      0.21      0.22      0.01         0.01
  c_905821                    0.22      0.23      0.22      0.56         0.01
  c_905831                    0.22      0.22      0.24      0.01         0.01
  c_905841                    0.22      0.22      0.27      0.01         0.01
  c_905851                    0.56      0.56      0.72      0.14         0.14
  c_905852                    0.24      0.24      0.44      0.01         0.01
  c_905861                    0.44      0.64      0.44      3.03         0.43
  c_905862                    0.27      0.27      0.39      0.01         0.01
  c_905871                    0.45      0.45      0.64      0.16         0.16
  c_905881                    0.31      0.31      0.71      0.01         0.01
  c_905891                    0.25      0.25      0.31      0.01         0.01
  c_905892                    0.23      0.23      0.25      0.01         0.01
  c_905901                    0.23      0.23      0.40      0.01         0.01
  c_905902                    0.23      0.23      0.24      0.04         0.05
  c_905921                    0.87      0.87      0.92      0.01         0.01
  c_905931                    0.45      0.57      0.45      2.69         0.45
  c_905941                    0.35      0.35      0.57      0.01         0.01
  c_905942                    0.89      0.89      0.92      1.02         0.01
  c_905951                    0.30      0.30      0.42      0.01         0.01
  c_905961                    0.28      0.28      0.42      0.01         0.01
  c_905971                    0.25      0.25      0.30      0.01         0.01
  c_905981                    0.24      0.24      0.28      0.01         0.01
  c_905982                    0.24      0.24      0.25      0.01         0.01
  c_905991                    0.25      0.25      0.26      0.01         0.01
  c_906001                    0.23      0.23      0.25      0.01         0.01
  c_906011                    0.22      0.22      0.23      0.01         0.01
  c_906031                    0.27      0.27      0.28      0.03         0.01
  c_906041                    0.27      0.27      0.34      0.01         0.01
  c_906051                    0.33      0.33      0.44      0.01         0.01
  c_906052                    0.28      0.28      0.36      0.01         0.01
  c_906061                    0.38      0.38      0.44      0.01         0.01
  c_906071                    0.36      0.36      0.41      0.01         0.01
  c_906081                    0.33      0.33      0.36      0.01         0.01
  c_906082                    0.28      0.28      0.33      0.01         0.01
  c_906091                    0.22      0.22      0.27      0.01         0.01
  c_906101                    0.22      0.22      0.23      0.01         0.01
  c_906111                    0.27      0.27      0.37      0.01         0.01
  c_906112                    0.23      0.23      0.26      0.01         0.01
  c_906121                    0.23      0.23      0.27      0.01         0.01
  c_906131                    0.21      0.21      0.23      0.01         0.01
  c_906132                    0.21      0.21      0.23      0.01         0.01
  c_906151                    0.10      0.10      0.11      0.01         0.01
  c_906161                    0.12      0.13      0.12      0.15         0.12
  c_906171                    0.12      0.12      0.13      0.12         0.11
  c_906181                    0.12      0.12      0.20      0.01         0.01
  c_906191                    0.11      0.12      0.11      0.17         0.11
  c_906192                    0.21      0.21      0.21      0.24         0.20
  c_906201                    0.32      0.32      0.34      1.96         0.01
  c_906202                    0.20      0.20      0.26      0.01         0.01
  c_906211                    0.36      0.36      0.42      0.13         0.13
  c_906231                    0.31      0.31      0.36      0.13         0.13
  c_906241                    0.89      0.89      1.00      0.01         0.01
  c_906261                    0.82      0.82      0.96      0.01         0.01
  c_906271                    0.96      0.96      0.98      0.12         0.12
  c_906272                    0.31      0.32      0.31      0.44         0.30
  c_906281                    0.32      0.32      0.42      0.11         0.12
  c_906291                    0.28      0.28      0.32      0.01         0.01
  c_906301                    0.13      0.13      0.14      0.01         0.01
  c_906321                    0.21      0.21      0.28      0.01         0.01
  c_906322                    0.34      0.35      0.34      0.94         0.33
  c_906331                    0.37      0.37      0.40      0.04         0.04
  c_906341                    0.40      0.40      0.66      0.01         0.01
  c_906342                    0.30      0.30      0.30      0.34         0.28
  c_906351                    0.75      0.75      0.82      0.01         0.01
  c_906352                    0.82      0.82      0.83      0.04         0.03
  c_906361                    0.46      0.46      0.79      0.01         0.01
  c_906371                    0.22      0.22      0.34      0.01         0.01
  c_906381                    0.41      0.41      0.47      0.04         0.04
  c_906391                    0.33      0.33      0.42      0.01         0.01
  c_906401                    0.22      0.22      0.25      0.01         0.01
  c_906402                    0.25      0.25      0.31      0.01         0.01
  c_906411                    0.33      0.33      0.38      0.01         0.01
  c_906421                    0.24      0.24      0.33      0.01         0.01
  c_906431                    0.23      0.23      0.24      0.01         0.01
  c_906441                    0.13      0.13      0.13      0.01         0.01
  c_906461                    0.19      0.19      0.23      0.01         0.01
  c_906471                    0.20      0.20      0.22      0.01         0.01
  c_906481                    0.25      0.25      0.34      0.01         0.01
  c_906491                    0.21      0.21      0.24      0.01         0.01
  c_906492                    0.22      0.22      0.23      0.14         0.12
  c_906501                    0.22      0.22      0.33      0.01         0.01
  c_906511                    0.36      0.36      0.51      0.01         0.01
  c_906521                    0.34      0.34      0.36      0.01         0.01
  c_906531                    0.22      0.22      0.34      0.01         0.01
  c_906541                    0.29      0.29      0.33      0.01         0.01
  c_906561                    0.30      0.30      0.33      0.69         0.01
  c_906562                    0.22      0.22      0.22      0.21         0.19
  c_906563                    0.33      0.33      0.44      0.02         0.02
  c_906581                    0.13      0.13      0.13      0.01         0.01
  c_906591                    0.14      0.14      0.14      0.01         0.01
  c_906592                    0.13      0.13      0.14      0.01         0.01
  c_906621                    0.11      0.11      0.11      0.02         0.01
  c_906622                    0.11      0.13      0.11      0.14         0.11
  c_906631                    0.36      0.36      0.36      0.74         0.27
  c_906641                    0.24      0.24      0.24      0.01         0.07
  c_906651                    1.12      1.12      1.12      0.17         0.21
  c_906701                    0.32      0.32      0.34      0.01         0.01
  c_906731                    0.90      0.90      0.90      0.74         0.50
  c_906741                    0.33      0.33      0.33      0.98         0.31
  c_906742                    0.24      0.24      0.28      0.01         0.01
  c_906751                    0.26      0.26      0.27      0.02         0.01
  c_906761                    0.31      0.31      0.32      0.03         0.02
  c_906771                    0.32      0.32      0.36      0.01         0.01
  c_906772                    0.35      0.35      0.36      0.05         0.08
  c_906781                    0.35      0.35      0.87      0.01         0.01
  c_906791                    0.29      0.29      0.35      0.01         0.01
  c_906801                    0.20      0.20      0.22      0.01         0.01
  c_906811                    0.23      0.23      0.25      0.01         0.01
  c_906821                    0.23      0.23      0.83      0.01         0.01
  c_906831                    0.19      0.19      0.20      0.01         0.01
  c_906832                    0.22      0.22      0.25      0.01         0.01
  c_906841                    0.80      0.80      0.81      0.01         0.01
  c_906851                    0.20      0.20      0.23      0.01         0.01
  c_906861                    0.28      0.28      0.32      0.01         0.01
  c_906862                    0.25      0.25      0.28      0.01         0.01
  c_906891                    0.11      0.11      0.11      0.08         0.07
  c_906901                    0.10      0.10      0.11      0.02         0.02
  c_906911                    0.02      0.03      0.02      0.06         0.02
  c_906921                    0.01      0.01      0.03      0.01         0.01
  c_906931                    0.01      0.01      0.01      0.01         0.01
  c_906932                    0.11      0.11      0.12      0.02         0.01
  c_906941                    0.09      0.09      0.11      0.01         0.01
  c_906961                    0.10      0.10      0.10      0.01         0.01
  c_906971                    0.10      0.10      0.11      0.01         0.01
  c_906981                    0.11      0.11      0.12      0.02         0.02
  c_906991                    0.12      0.12      0.12      0.06         0.06
  c_906992                    0.11      0.12      0.12      0.13         0.10
  c_907031                    0.38      0.38      0.49      0.01         0.01
  c_907032                    0.34      0.34      0.71      0.01         0.01
  c_907033                    0.49      0.49      0.68      0.01         0.01
  c_907041                    0.23      0.23      0.24      0.01         0.01
  c_907042                    0.22      0.22      0.23      0.10         0.01
  c_907051                    0.24      0.24      0.33      0.01         0.01
  c_907061                    0.78      0.78      0.85      0.01         0.01
  c_907062                    0.78      0.78      0.87      0.01         0.01
  c_907071                    0.44      0.44      0.46      0.03         0.02
  c_907081                    0.26      0.26      0.37      0.01         0.01
  c_907091                    0.33      0.33      0.77      0.01         0.01
  c_907101                    0.24      0.24      0.33      0.01         0.01
  c_907241                    0.34      0.34      0.35      0.01         0.01
  c_907242                    0.35      0.35      0.35      0.17         0.19
  c_907251                    0.25      0.25      0.46      0.01         0.01
  c_907261                    0.22      0.22      0.25      0.01         0.01
  c_907271                    0.21      0.21      0.22      0.01         0.01
  c_907281                    0.18      0.18      0.22      0.01         0.01
  c_907291                    0.16      0.16      0.22      0.01         0.01
  c_907301                    0.22      0.22      0.32      0.01         0.01
  c_907311                    0.21      0.21      0.32      0.01         0.01
  c_907321                    0.19      0.19      0.21      0.01         0.01
  c_907331                    0.32      0.32      0.38      0.01         0.01
  c_907332                    0.38      0.38      0.45      0.01         0.01
  c_912721                    0.18      0.18      0.18      0.12         0.06
  c_912731                    0.10      0.10      0.13      0.01         0.01
  c_912741                    0.16      0.17      0.17      0.09         0.05
  c_912751                    0.09      0.09      0.13      0.01         0.01
  c_912761                    0.15      0.15      0.17      0.03         0.01
  c_912771                    0.08      0.08      0.11      0.01         0.01
  c_912781                    0.11      0.11      0.15      0.01         0.01
  c_912791                    0.07      0.07      0.10      0.01         0.01
  c_912931                    0.16      0.16      0.31      0.01         0.01
  c_912932                    0.31      0.31      0.31      0.04         0.01
  c_912941                    0.09      0.09      0.11      0.01         0.01
  

  Analysis begun on:  Sun Jun 12 01:33:24 2022
  Analysis ended on:  Sun Jun 12 01:33:52 2022
  Total elapsed time: 00:00:28